* NGSPICE file created from io_interface.ext - technology: gf180mcuC

* Black-box entry subcircuit for gf180mcu_fd_sc_mcu7t5v0__fillcap_4 abstract view
.subckt gf180mcu_fd_sc_mcu7t5v0__fillcap_4 VDD VSS
.ends

* Black-box entry subcircuit for gf180mcu_fd_sc_mcu7t5v0__fill_1 abstract view
.subckt gf180mcu_fd_sc_mcu7t5v0__fill_1 VDD VSS
.ends

* Black-box entry subcircuit for gf180mcu_fd_sc_mcu7t5v0__fill_2 abstract view
.subckt gf180mcu_fd_sc_mcu7t5v0__fill_2 VDD VSS
.ends

* Black-box entry subcircuit for gf180mcu_fd_sc_mcu7t5v0__fillcap_64 abstract view
.subckt gf180mcu_fd_sc_mcu7t5v0__fillcap_64 VDD VSS
.ends

* Black-box entry subcircuit for gf180mcu_fd_sc_mcu7t5v0__antenna abstract view
.subckt gf180mcu_fd_sc_mcu7t5v0__antenna I VDD VSS
.ends

* Black-box entry subcircuit for gf180mcu_fd_sc_mcu7t5v0__filltie abstract view
.subckt gf180mcu_fd_sc_mcu7t5v0__filltie VDD VSS
.ends

* Black-box entry subcircuit for gf180mcu_fd_sc_mcu7t5v0__fillcap_8 abstract view
.subckt gf180mcu_fd_sc_mcu7t5v0__fillcap_8 VDD VSS
.ends

* Black-box entry subcircuit for gf180mcu_fd_sc_mcu7t5v0__fillcap_32 abstract view
.subckt gf180mcu_fd_sc_mcu7t5v0__fillcap_32 VDD VSS
.ends

* Black-box entry subcircuit for gf180mcu_fd_sc_mcu7t5v0__nand2_1 abstract view
.subckt gf180mcu_fd_sc_mcu7t5v0__nand2_1 A1 A2 ZN VDD VSS
.ends

* Black-box entry subcircuit for gf180mcu_fd_sc_mcu7t5v0__clkbuf_3 abstract view
.subckt gf180mcu_fd_sc_mcu7t5v0__clkbuf_3 I Z VDD VSS
.ends

* Black-box entry subcircuit for gf180mcu_fd_sc_mcu7t5v0__fillcap_16 abstract view
.subckt gf180mcu_fd_sc_mcu7t5v0__fillcap_16 VDD VSS
.ends

* Black-box entry subcircuit for gf180mcu_fd_sc_mcu7t5v0__dlyb_1 abstract view
.subckt gf180mcu_fd_sc_mcu7t5v0__dlyb_1 I Z VDD VSS
.ends

* Black-box entry subcircuit for gf180mcu_fd_sc_mcu7t5v0__dlyd_1 abstract view
.subckt gf180mcu_fd_sc_mcu7t5v0__dlyd_1 I Z VDD VSS
.ends

* Black-box entry subcircuit for gf180mcu_fd_sc_mcu7t5v0__clkbuf_1 abstract view
.subckt gf180mcu_fd_sc_mcu7t5v0__clkbuf_1 I Z VDD VSS
.ends

* Black-box entry subcircuit for gf180mcu_fd_sc_mcu7t5v0__mux2_2 abstract view
.subckt gf180mcu_fd_sc_mcu7t5v0__mux2_2 I0 I1 S Z VDD VSS
.ends

* Black-box entry subcircuit for gf180mcu_fd_sc_mcu7t5v0__nand4_1 abstract view
.subckt gf180mcu_fd_sc_mcu7t5v0__nand4_1 A1 A2 A3 A4 ZN VDD VSS
.ends

* Black-box entry subcircuit for gf180mcu_fd_sc_mcu7t5v0__buf_1 abstract view
.subckt gf180mcu_fd_sc_mcu7t5v0__buf_1 I Z VDD VSS
.ends

* Black-box entry subcircuit for gf180mcu_fd_sc_mcu7t5v0__tiel abstract view
.subckt gf180mcu_fd_sc_mcu7t5v0__tiel ZN VDD VSS
.ends

* Black-box entry subcircuit for gf180mcu_fd_sc_mcu7t5v0__tieh abstract view
.subckt gf180mcu_fd_sc_mcu7t5v0__tieh Z VDD VSS
.ends

* Black-box entry subcircuit for gf180mcu_fd_sc_mcu7t5v0__endcap abstract view
.subckt gf180mcu_fd_sc_mcu7t5v0__endcap VDD VSS
.ends

* Black-box entry subcircuit for gf180mcu_fd_sc_mcu7t5v0__aoi21_1 abstract view
.subckt gf180mcu_fd_sc_mcu7t5v0__aoi21_1 A1 A2 B ZN VDD VSS
.ends

* Black-box entry subcircuit for gf180mcu_fd_sc_mcu7t5v0__clkbuf_2 abstract view
.subckt gf180mcu_fd_sc_mcu7t5v0__clkbuf_2 I Z VDD VSS
.ends

* Black-box entry subcircuit for gf180mcu_fd_sc_mcu7t5v0__nor4_2 abstract view
.subckt gf180mcu_fd_sc_mcu7t5v0__nor4_2 A1 A2 A3 A4 ZN VDD VSS
.ends

* Black-box entry subcircuit for gf180mcu_fd_sc_mcu7t5v0__nor4_1 abstract view
.subckt gf180mcu_fd_sc_mcu7t5v0__nor4_1 A1 A2 A3 A4 ZN VDD VSS
.ends

* Black-box entry subcircuit for gf180mcu_fd_sc_mcu7t5v0__and2_1 abstract view
.subckt gf180mcu_fd_sc_mcu7t5v0__and2_1 A1 A2 Z VDD VSS
.ends

* Black-box entry subcircuit for gf180mcu_fd_sc_mcu7t5v0__dlyc_1 abstract view
.subckt gf180mcu_fd_sc_mcu7t5v0__dlyc_1 I Z VDD VSS
.ends

* Black-box entry subcircuit for gf180mcu_fd_sc_mcu7t5v0__aoi22_1 abstract view
.subckt gf180mcu_fd_sc_mcu7t5v0__aoi22_1 A1 A2 B1 B2 ZN VDD VSS
.ends

* Black-box entry subcircuit for gf180mcu_fd_sc_mcu7t5v0__mux4_1 abstract view
.subckt gf180mcu_fd_sc_mcu7t5v0__mux4_1 I0 I1 I2 I3 S0 S1 Z VDD VSS
.ends

* Black-box entry subcircuit for gf180mcu_fd_sc_mcu7t5v0__oai21_2 abstract view
.subckt gf180mcu_fd_sc_mcu7t5v0__oai21_2 A1 A2 B ZN VDD VSS
.ends

* Black-box entry subcircuit for gf180mcu_fd_sc_mcu7t5v0__buf_2 abstract view
.subckt gf180mcu_fd_sc_mcu7t5v0__buf_2 I Z VDD VSS
.ends

* Black-box entry subcircuit for gf180mcu_fd_sc_mcu7t5v0__dffrnq_1 abstract view
.subckt gf180mcu_fd_sc_mcu7t5v0__dffrnq_1 D RN CLK Q VDD VSS
.ends

* Black-box entry subcircuit for gf180mcu_fd_sc_mcu7t5v0__aoi222_2 abstract view
.subckt gf180mcu_fd_sc_mcu7t5v0__aoi222_2 A1 A2 B1 B2 C1 C2 ZN VDD VSS
.ends

* Black-box entry subcircuit for gf180mcu_fd_sc_mcu7t5v0__xor2_1 abstract view
.subckt gf180mcu_fd_sc_mcu7t5v0__xor2_1 A1 A2 Z VDD VSS
.ends

* Black-box entry subcircuit for gf180mcu_fd_sc_mcu7t5v0__nand2_2 abstract view
.subckt gf180mcu_fd_sc_mcu7t5v0__nand2_2 A1 A2 ZN VDD VSS
.ends

* Black-box entry subcircuit for gf180mcu_fd_sc_mcu7t5v0__nand4_2 abstract view
.subckt gf180mcu_fd_sc_mcu7t5v0__nand4_2 A1 A2 A3 A4 ZN VDD VSS
.ends

* Black-box entry subcircuit for gf180mcu_fd_sc_mcu7t5v0__nor2_1 abstract view
.subckt gf180mcu_fd_sc_mcu7t5v0__nor2_1 A1 A2 ZN VDD VSS
.ends

* Black-box entry subcircuit for gf180mcu_fd_sc_mcu7t5v0__clkinv_1 abstract view
.subckt gf180mcu_fd_sc_mcu7t5v0__clkinv_1 I ZN VDD VSS
.ends

* Black-box entry subcircuit for gf180mcu_fd_sc_mcu7t5v0__and4_1 abstract view
.subckt gf180mcu_fd_sc_mcu7t5v0__and4_1 A1 A2 A3 A4 Z VDD VSS
.ends

* Black-box entry subcircuit for gf180mcu_fd_sc_mcu7t5v0__and3_1 abstract view
.subckt gf180mcu_fd_sc_mcu7t5v0__and3_1 A1 A2 A3 Z VDD VSS
.ends

* Black-box entry subcircuit for gf180mcu_fd_sc_mcu7t5v0__oai21_1 abstract view
.subckt gf180mcu_fd_sc_mcu7t5v0__oai21_1 A1 A2 B ZN VDD VSS
.ends

* Black-box entry subcircuit for gf180mcu_fd_sc_mcu7t5v0__oai31_1 abstract view
.subckt gf180mcu_fd_sc_mcu7t5v0__oai31_1 A1 A2 A3 B ZN VDD VSS
.ends

* Black-box entry subcircuit for gf180mcu_fd_sc_mcu7t5v0__nand3_1 abstract view
.subckt gf180mcu_fd_sc_mcu7t5v0__nand3_1 A1 A2 A3 ZN VDD VSS
.ends

* Black-box entry subcircuit for gf180mcu_fd_sc_mcu7t5v0__xnor2_1 abstract view
.subckt gf180mcu_fd_sc_mcu7t5v0__xnor2_1 A1 A2 ZN VDD VSS
.ends

.subckt io_interface Serial_input Serial_output analog_io[0] analog_io[10] analog_io[11]
+ analog_io[12] analog_io[13] analog_io[14] analog_io[15] analog_io[16] analog_io[17]
+ analog_io[18] analog_io[19] analog_io[1] analog_io[20] analog_io[21] analog_io[22]
+ analog_io[23] analog_io[24] analog_io[25] analog_io[26] analog_io[27] analog_io[28]
+ analog_io[2] analog_io[3] analog_io[4] analog_io[5] analog_io[6] analog_io[7] analog_io[8]
+ analog_io[9] clk data_mem_addr[0] data_mem_addr[1] data_mem_addr[2] data_mem_addr[3]
+ data_mem_addr[4] data_mem_addr[5] data_mem_addr[6] data_mem_addr[7] data_mem_sel
+ data_read_data[0] data_read_data[10] data_read_data[11] data_read_data[12] data_read_data[13]
+ data_read_data[14] data_read_data[15] data_read_data[1] data_read_data[2] data_read_data[3]
+ data_read_data[4] data_read_data[5] data_read_data[6] data_read_data[7] data_read_data[8]
+ data_read_data[9] data_write_data[0] data_write_data[10] data_write_data[11] data_write_data[12]
+ data_write_data[13] data_write_data[14] data_write_data[15] data_write_data[1] data_write_data[2]
+ data_write_data[3] data_write_data[4] data_write_data[5] data_write_data[6] data_write_data[7]
+ data_write_data[8] data_write_data[9] dataw_en dataw_en_8bit[0] dataw_en_8bit[1]
+ dataw_en_8bit[2] dataw_en_8bit[3] dataw_en_8bit[4] dataw_en_8bit[5] dataw_en_8bit[6]
+ dataw_en_8bit[7] hlt instr[0] instr[10] instr[11] instr[12] instr[13] instr[14]
+ instr[15] instr[1] instr[2] instr[3] instr[4] instr[5] instr[6] instr[7] instr[8]
+ instr[9] instr_mem_addr[0] instr_mem_addr[1] instr_mem_addr[2] instr_mem_addr[3]
+ instr_mem_addr[4] instr_mem_addr[5] instr_mem_addr[6] instr_mem_addr[7] instr_mem_sel
+ instr_write_data[0] instr_write_data[10] instr_write_data[11] instr_write_data[12]
+ instr_write_data[13] instr_write_data[14] instr_write_data[15] instr_write_data[1]
+ instr_write_data[2] instr_write_data[3] instr_write_data[4] instr_write_data[5]
+ instr_write_data[6] instr_write_data[7] instr_write_data[8] instr_write_data[9]
+ instrw_en instrw_en_8bit[0] instrw_en_8bit[1] instrw_en_8bit[2] instrw_en_8bit[3]
+ instrw_en_8bit[4] instrw_en_8bit[5] instrw_en_8bit[6] instrw_en_8bit[7] io_in[0]
+ io_in[10] io_in[11] io_in[12] io_in[13] io_in[14] io_in[15] io_in[16] io_in[17]
+ io_in[18] io_in[19] io_in[1] io_in[20] io_in[21] io_in[22] io_in[23] io_in[24] io_in[25]
+ io_in[26] io_in[27] io_in[28] io_in[29] io_in[2] io_in[30] io_in[31] io_in[32] io_in[33]
+ io_in[34] io_in[35] io_in[36] io_in[37] io_in[3] io_in[4] io_in[5] io_in[6] io_in[7]
+ io_in[8] io_in[9] io_oeb[0] io_oeb[10] io_oeb[11] io_oeb[12] io_oeb[13] io_oeb[14]
+ io_oeb[15] io_oeb[16] io_oeb[17] io_oeb[18] io_oeb[19] io_oeb[1] io_oeb[20] io_oeb[21]
+ io_oeb[22] io_oeb[23] io_oeb[24] io_oeb[25] io_oeb[26] io_oeb[27] io_oeb[28] io_oeb[29]
+ io_oeb[2] io_oeb[30] io_oeb[31] io_oeb[32] io_oeb[33] io_oeb[34] io_oeb[35] io_oeb[36]
+ io_oeb[37] io_oeb[3] io_oeb[4] io_oeb[5] io_oeb[6] io_oeb[7] io_oeb[8] io_oeb[9]
+ io_out[0] io_out[10] io_out[11] io_out[12] io_out[13] io_out[14] io_out[15] io_out[16]
+ io_out[17] io_out[18] io_out[19] io_out[1] io_out[20] io_out[21] io_out[22] io_out[23]
+ io_out[24] io_out[25] io_out[26] io_out[27] io_out[28] io_out[29] io_out[2] io_out[30]
+ io_out[31] io_out[32] io_out[33] io_out[34] io_out[35] io_out[36] io_out[37] io_out[3]
+ io_out[4] io_out[5] io_out[6] io_out[7] io_out[8] io_out[9] irq[0] irq[1] irq[2]
+ la_data_in[0] la_data_in[100] la_data_in[101] la_data_in[102] la_data_in[103] la_data_in[104]
+ la_data_in[105] la_data_in[106] la_data_in[107] la_data_in[108] la_data_in[109]
+ la_data_in[10] la_data_in[110] la_data_in[111] la_data_in[112] la_data_in[113] la_data_in[114]
+ la_data_in[115] la_data_in[116] la_data_in[117] la_data_in[118] la_data_in[119]
+ la_data_in[11] la_data_in[120] la_data_in[121] la_data_in[122] la_data_in[123] la_data_in[124]
+ la_data_in[125] la_data_in[126] la_data_in[127] la_data_in[12] la_data_in[13] la_data_in[14]
+ la_data_in[15] la_data_in[16] la_data_in[17] la_data_in[18] la_data_in[19] la_data_in[1]
+ la_data_in[20] la_data_in[21] la_data_in[22] la_data_in[23] la_data_in[24] la_data_in[25]
+ la_data_in[26] la_data_in[27] la_data_in[28] la_data_in[29] la_data_in[2] la_data_in[30]
+ la_data_in[31] la_data_in[32] la_data_in[33] la_data_in[34] la_data_in[35] la_data_in[36]
+ la_data_in[37] la_data_in[38] la_data_in[39] la_data_in[3] la_data_in[40] la_data_in[41]
+ la_data_in[42] la_data_in[43] la_data_in[44] la_data_in[45] la_data_in[46] la_data_in[47]
+ la_data_in[48] la_data_in[49] la_data_in[4] la_data_in[50] la_data_in[51] la_data_in[52]
+ la_data_in[53] la_data_in[54] la_data_in[55] la_data_in[56] la_data_in[57] la_data_in[58]
+ la_data_in[59] la_data_in[5] la_data_in[60] la_data_in[61] la_data_in[62] la_data_in[63]
+ la_data_in[64] la_data_in[65] la_data_in[66] la_data_in[67] la_data_in[68] la_data_in[69]
+ la_data_in[6] la_data_in[70] la_data_in[71] la_data_in[72] la_data_in[73] la_data_in[74]
+ la_data_in[75] la_data_in[76] la_data_in[77] la_data_in[78] la_data_in[79] la_data_in[7]
+ la_data_in[80] la_data_in[81] la_data_in[82] la_data_in[83] la_data_in[84] la_data_in[85]
+ la_data_in[86] la_data_in[87] la_data_in[88] la_data_in[89] la_data_in[8] la_data_in[90]
+ la_data_in[91] la_data_in[92] la_data_in[93] la_data_in[94] la_data_in[95] la_data_in[96]
+ la_data_in[97] la_data_in[98] la_data_in[99] la_data_in[9] la_data_out[0] la_data_out[100]
+ la_data_out[101] la_data_out[102] la_data_out[103] la_data_out[104] la_data_out[105]
+ la_data_out[106] la_data_out[107] la_data_out[108] la_data_out[109] la_data_out[10]
+ la_data_out[110] la_data_out[111] la_data_out[112] la_data_out[113] la_data_out[114]
+ la_data_out[115] la_data_out[116] la_data_out[117] la_data_out[118] la_data_out[119]
+ la_data_out[11] la_data_out[120] la_data_out[121] la_data_out[122] la_data_out[123]
+ la_data_out[124] la_data_out[125] la_data_out[126] la_data_out[127] la_data_out[12]
+ la_data_out[13] la_data_out[14] la_data_out[15] la_data_out[16] la_data_out[17]
+ la_data_out[18] la_data_out[19] la_data_out[1] la_data_out[20] la_data_out[21] la_data_out[22]
+ la_data_out[23] la_data_out[24] la_data_out[25] la_data_out[26] la_data_out[27]
+ la_data_out[28] la_data_out[29] la_data_out[2] la_data_out[30] la_data_out[31] la_data_out[32]
+ la_data_out[33] la_data_out[34] la_data_out[35] la_data_out[36] la_data_out[37]
+ la_data_out[38] la_data_out[39] la_data_out[3] la_data_out[40] la_data_out[41] la_data_out[42]
+ la_data_out[43] la_data_out[44] la_data_out[45] la_data_out[46] la_data_out[47]
+ la_data_out[48] la_data_out[49] la_data_out[4] la_data_out[50] la_data_out[51] la_data_out[52]
+ la_data_out[53] la_data_out[54] la_data_out[55] la_data_out[56] la_data_out[57]
+ la_data_out[58] la_data_out[59] la_data_out[5] la_data_out[60] la_data_out[61] la_data_out[62]
+ la_data_out[63] la_data_out[64] la_data_out[65] la_data_out[66] la_data_out[67]
+ la_data_out[68] la_data_out[69] la_data_out[6] la_data_out[70] la_data_out[71] la_data_out[72]
+ la_data_out[73] la_data_out[74] la_data_out[75] la_data_out[76] la_data_out[77]
+ la_data_out[78] la_data_out[79] la_data_out[7] la_data_out[80] la_data_out[81] la_data_out[82]
+ la_data_out[83] la_data_out[84] la_data_out[85] la_data_out[86] la_data_out[87]
+ la_data_out[88] la_data_out[89] la_data_out[8] la_data_out[90] la_data_out[91] la_data_out[92]
+ la_data_out[93] la_data_out[94] la_data_out[95] la_data_out[96] la_data_out[97]
+ la_data_out[98] la_data_out[99] la_data_out[9] la_oenb[0] la_oenb[100] la_oenb[101]
+ la_oenb[102] la_oenb[103] la_oenb[104] la_oenb[105] la_oenb[106] la_oenb[107] la_oenb[108]
+ la_oenb[109] la_oenb[10] la_oenb[110] la_oenb[111] la_oenb[112] la_oenb[113] la_oenb[114]
+ la_oenb[115] la_oenb[116] la_oenb[117] la_oenb[118] la_oenb[119] la_oenb[11] la_oenb[120]
+ la_oenb[121] la_oenb[122] la_oenb[123] la_oenb[124] la_oenb[125] la_oenb[126] la_oenb[127]
+ la_oenb[12] la_oenb[13] la_oenb[14] la_oenb[15] la_oenb[16] la_oenb[17] la_oenb[18]
+ la_oenb[19] la_oenb[1] la_oenb[20] la_oenb[21] la_oenb[22] la_oenb[23] la_oenb[24]
+ la_oenb[25] la_oenb[26] la_oenb[27] la_oenb[28] la_oenb[29] la_oenb[2] la_oenb[30]
+ la_oenb[31] la_oenb[32] la_oenb[33] la_oenb[34] la_oenb[35] la_oenb[36] la_oenb[37]
+ la_oenb[38] la_oenb[39] la_oenb[3] la_oenb[40] la_oenb[41] la_oenb[42] la_oenb[43]
+ la_oenb[44] la_oenb[45] la_oenb[46] la_oenb[47] la_oenb[48] la_oenb[49] la_oenb[4]
+ la_oenb[50] la_oenb[51] la_oenb[52] la_oenb[53] la_oenb[54] la_oenb[55] la_oenb[56]
+ la_oenb[57] la_oenb[58] la_oenb[59] la_oenb[5] la_oenb[60] la_oenb[61] la_oenb[62]
+ la_oenb[63] la_oenb[64] la_oenb[65] la_oenb[66] la_oenb[67] la_oenb[68] la_oenb[69]
+ la_oenb[6] la_oenb[70] la_oenb[71] la_oenb[72] la_oenb[73] la_oenb[74] la_oenb[75]
+ la_oenb[76] la_oenb[77] la_oenb[78] la_oenb[79] la_oenb[7] la_oenb[80] la_oenb[81]
+ la_oenb[82] la_oenb[83] la_oenb[84] la_oenb[85] la_oenb[86] la_oenb[87] la_oenb[88]
+ la_oenb[89] la_oenb[8] la_oenb[90] la_oenb[91] la_oenb[92] la_oenb[93] la_oenb[94]
+ la_oenb[95] la_oenb[96] la_oenb[97] la_oenb[98] la_oenb[99] la_oenb[9] reset start
+ uP_data_mem_addr[0] uP_data_mem_addr[1] uP_data_mem_addr[2] uP_data_mem_addr[3]
+ uP_data_mem_addr[4] uP_data_mem_addr[5] uP_data_mem_addr[6] uP_data_mem_addr[7]
+ uP_dataw_en uP_instr[0] uP_instr[10] uP_instr[11] uP_instr[12] uP_instr[13] uP_instr[14]
+ uP_instr[15] uP_instr[1] uP_instr[2] uP_instr[3] uP_instr[4] uP_instr[5] uP_instr[6]
+ uP_instr[7] uP_instr[8] uP_instr[9] uP_instr_mem_addr[0] uP_instr_mem_addr[10] uP_instr_mem_addr[11]
+ uP_instr_mem_addr[12] uP_instr_mem_addr[1] uP_instr_mem_addr[2] uP_instr_mem_addr[3]
+ uP_instr_mem_addr[4] uP_instr_mem_addr[5] uP_instr_mem_addr[6] uP_instr_mem_addr[7]
+ uP_instr_mem_addr[8] uP_instr_mem_addr[9] uP_write_data[0] uP_write_data[10] uP_write_data[11]
+ uP_write_data[12] uP_write_data[13] uP_write_data[14] uP_write_data[15] uP_write_data[1]
+ uP_write_data[2] uP_write_data[3] uP_write_data[4] uP_write_data[5] uP_write_data[6]
+ uP_write_data[7] uP_write_data[8] uP_write_data[9] vdd vss wb_clk_i wb_rst_i wbs_ack_o
+ wbs_adr_i[0] wbs_adr_i[10] wbs_adr_i[11] wbs_adr_i[12] wbs_adr_i[13] wbs_adr_i[14]
+ wbs_adr_i[15] wbs_adr_i[16] wbs_adr_i[17] wbs_adr_i[18] wbs_adr_i[19] wbs_adr_i[1]
+ wbs_adr_i[20] wbs_adr_i[21] wbs_adr_i[22] wbs_adr_i[23] wbs_adr_i[24] wbs_adr_i[25]
+ wbs_adr_i[26] wbs_adr_i[27] wbs_adr_i[28] wbs_adr_i[29] wbs_adr_i[2] wbs_adr_i[30]
+ wbs_adr_i[31] wbs_adr_i[3] wbs_adr_i[4] wbs_adr_i[5] wbs_adr_i[6] wbs_adr_i[7] wbs_adr_i[8]
+ wbs_adr_i[9] wbs_cyc_i wbs_dat_i[0] wbs_dat_i[10] wbs_dat_i[11] wbs_dat_i[12] wbs_dat_i[13]
+ wbs_dat_i[14] wbs_dat_i[15] wbs_dat_i[16] wbs_dat_i[17] wbs_dat_i[18] wbs_dat_i[19]
+ wbs_dat_i[1] wbs_dat_i[20] wbs_dat_i[21] wbs_dat_i[22] wbs_dat_i[23] wbs_dat_i[24]
+ wbs_dat_i[25] wbs_dat_i[26] wbs_dat_i[27] wbs_dat_i[28] wbs_dat_i[29] wbs_dat_i[2]
+ wbs_dat_i[30] wbs_dat_i[31] wbs_dat_i[3] wbs_dat_i[4] wbs_dat_i[5] wbs_dat_i[6]
+ wbs_dat_i[7] wbs_dat_i[8] wbs_dat_i[9] wbs_dat_o[0] wbs_dat_o[10] wbs_dat_o[11]
+ wbs_dat_o[12] wbs_dat_o[13] wbs_dat_o[14] wbs_dat_o[15] wbs_dat_o[16] wbs_dat_o[17]
+ wbs_dat_o[18] wbs_dat_o[19] wbs_dat_o[1] wbs_dat_o[20] wbs_dat_o[21] wbs_dat_o[22]
+ wbs_dat_o[23] wbs_dat_o[24] wbs_dat_o[25] wbs_dat_o[26] wbs_dat_o[27] wbs_dat_o[28]
+ wbs_dat_o[29] wbs_dat_o[2] wbs_dat_o[30] wbs_dat_o[31] wbs_dat_o[3] wbs_dat_o[4]
+ wbs_dat_o[5] wbs_dat_o[6] wbs_dat_o[7] wbs_dat_o[8] wbs_dat_o[9] wbs_sel_i[0] wbs_sel_i[1]
+ wbs_sel_i[2] wbs_sel_i[3] wbs_stb_i wbs_we_i
XFILLER_116_2799 vdd vss gf180mcu_fd_sc_mcu7t5v0__fillcap_4
XFILLER_95_851 vdd vss gf180mcu_fd_sc_mcu7t5v0__fill_1
XFILLER_132_2089 vdd vss gf180mcu_fd_sc_mcu7t5v0__fillcap_4
XFILLER_97_3186 vdd vss gf180mcu_fd_sc_mcu7t5v0__fill_2
XFILLER_3_2467 vdd vss gf180mcu_fd_sc_mcu7t5v0__fill_2
XFILLER_27_428 vdd vss gf180mcu_fd_sc_mcu7t5v0__fillcap_64
XFILLER_3_2489 vdd vss gf180mcu_fd_sc_mcu7t5v0__fill_1
XFILLER_3_1744 vdd vss gf180mcu_fd_sc_mcu7t5v0__fill_2
XFILLER_3_1755 vdd vss gf180mcu_fd_sc_mcu7t5v0__fill_2
XFILLER_82_534 vdd vss gf180mcu_fd_sc_mcu7t5v0__fillcap_64
XFILLER_199_208 vdd vss gf180mcu_fd_sc_mcu7t5v0__fillcap_4
XFILLER_184_2444 vdd vss gf180mcu_fd_sc_mcu7t5v0__fillcap_4
XFILLER_54_247 vdd vss gf180mcu_fd_sc_mcu7t5v0__fill_1
XFILLER_3_1777 vdd vss gf180mcu_fd_sc_mcu7t5v0__fill_2
XFILLER_19_2409 vdd vss gf180mcu_fd_sc_mcu7t5v0__fillcap_4
XFILLER_93_2338 vdd vss gf180mcu_fd_sc_mcu7t5v0__fillcap_4
XFILLER_149_1841 vdd vss gf180mcu_fd_sc_mcu7t5v0__fillcap_4
XFILLER_165_1131 vdd vss gf180mcu_fd_sc_mcu7t5v0__fillcap_4
XFILLER_225_3186 vdd vss gf180mcu_fd_sc_mcu7t5v0__fill_2
XANTENNA_input108_I la_data_in[33] vdd vss gf180mcu_fd_sc_mcu7t5v0__antenna
XFILLER_56_2160 vdd vss gf180mcu_fd_sc_mcu7t5v0__fillcap_4
XFILLER_1_1490 vdd vss gf180mcu_fd_sc_mcu7t5v0__fill_1
XFILLER_23_634 vdd vss gf180mcu_fd_sc_mcu7t5v0__fillcap_4
XFILLER_195_425 vdd vss gf180mcu_fd_sc_mcu7t5v0__fill_1
XFILLER_30_3012 vdd vss gf180mcu_fd_sc_mcu7t5v0__fillcap_4
XFILLER_221_2338 vdd vss gf180mcu_fd_sc_mcu7t5v0__fillcap_4
XFILLER_52_1312 vdd vss gf180mcu_fd_sc_mcu7t5v0__fill_1
XFILLER_143_2196 vdd vss gf180mcu_fd_sc_mcu7t5v0__fillcap_4
XFILLER_182_108 vdd vss gf180mcu_fd_sc_mcu7t5v0__fillcap_64
XTAP_9607 vdd vss gf180mcu_fd_sc_mcu7t5v0__filltie
XTAP_9618 vdd vss gf180mcu_fd_sc_mcu7t5v0__filltie
XFILLER_104_1457 vdd vss gf180mcu_fd_sc_mcu7t5v0__fillcap_64
XTAP_9629 vdd vss gf180mcu_fd_sc_mcu7t5v0__filltie
XFILLER_148_385 vdd vss gf180mcu_fd_sc_mcu7t5v0__fillcap_4
XFILLER_178_1525 vdd vss gf180mcu_fd_sc_mcu7t5v0__fill_1
XFILLER_65_3119 vdd vss gf180mcu_fd_sc_mcu7t5v0__fillcap_4
XFILLER_195_2551 vdd vss gf180mcu_fd_sc_mcu7t5v0__fillcap_4
XFILLER_30_2377 vdd vss gf180mcu_fd_sc_mcu7t5v0__fill_1
XFILLER_87_1419 vdd vss gf180mcu_fd_sc_mcu7t5v0__fill_1
XTAP_8906 vdd vss gf180mcu_fd_sc_mcu7t5v0__filltie
XANTENNA_input73_I la_data_in[117] vdd vss gf180mcu_fd_sc_mcu7t5v0__antenna
XTAP_8917 vdd vss gf180mcu_fd_sc_mcu7t5v0__filltie
XTAP_8928 vdd vss gf180mcu_fd_sc_mcu7t5v0__filltie
XTAP_8939 vdd vss gf180mcu_fd_sc_mcu7t5v0__filltie
XFILLER_164_889 vdd vss gf180mcu_fd_sc_mcu7t5v0__fillcap_64
XFILLER_102_1170 vdd vss gf180mcu_fd_sc_mcu7t5v0__fill_1
XFILLER_123_208 vdd vss gf180mcu_fd_sc_mcu7t5v0__fillcap_4
XFILLER_11_1064 vdd vss gf180mcu_fd_sc_mcu7t5v0__fill_1
XFILLER_219_2267 vdd vss gf180mcu_fd_sc_mcu7t5v0__fillcap_4
XFILLER_156_1812 vdd vss gf180mcu_fd_sc_mcu7t5v0__fillcap_64
XTAP_11490 vdd vss gf180mcu_fd_sc_mcu7t5v0__filltie
XFILLER_191_1703 vdd vss gf180mcu_fd_sc_mcu7t5v0__fill_1
XFILLER_65_1706 vdd vss gf180mcu_fd_sc_mcu7t5v0__fillcap_64
XFILLER_117_783 vdd vss gf180mcu_fd_sc_mcu7t5v0__fillcap_64
XFILLER_2_527 vdd vss gf180mcu_fd_sc_mcu7t5v0__fill_2
XFILLER_82_2732 vdd vss gf180mcu_fd_sc_mcu7t5v0__fill_1
XFILLER_172_1102 vdd vss gf180mcu_fd_sc_mcu7t5v0__fillcap_64
XFILLER_117_66 vdd vss gf180mcu_fd_sc_mcu7t5v0__fillcap_4
XFILLER_215_1419 vdd vss gf180mcu_fd_sc_mcu7t5v0__fill_1
XFILLER_78_818 vdd vss gf180mcu_fd_sc_mcu7t5v0__fillcap_64
XFILLER_89_144 vdd vss gf180mcu_fd_sc_mcu7t5v0__fillcap_64
XFILLER_105_989 vdd vss gf180mcu_fd_sc_mcu7t5v0__fillcap_4
XFILLER_236_1880 vdd vss gf180mcu_fd_sc_mcu7t5v0__fill_1
XFILLER_137_1277 vdd vss gf180mcu_fd_sc_mcu7t5v0__fill_1
XFILLER_134_2877 vdd vss gf180mcu_fd_sc_mcu7t5v0__fillcap_64
XFILLER_4_2209 vdd vss gf180mcu_fd_sc_mcu7t5v0__fillcap_4
XFILLER_41_3174 vdd vss gf180mcu_fd_sc_mcu7t5v0__fillcap_8
XFILLER_150_2167 vdd vss gf180mcu_fd_sc_mcu7t5v0__fillcap_64
XFILLER_58_531 vdd vss gf180mcu_fd_sc_mcu7t5v0__fill_1
XFILLER_210_2732 vdd vss gf180mcu_fd_sc_mcu7t5v0__fill_1
XFILLER_111_2129 vdd vss gf180mcu_fd_sc_mcu7t5v0__fill_1
XFILLER_4_1508 vdd vss gf180mcu_fd_sc_mcu7t5v0__fill_2
XFILLER_98_2238 vdd vss gf180mcu_fd_sc_mcu7t5v0__fillcap_64
XFILLER_246_632 vdd vss gf180mcu_fd_sc_mcu7t5v0__fill_1
XFILLER_19_918 vdd vss gf180mcu_fd_sc_mcu7t5v0__fillcap_4
XFILLER_115_1564 vdd vss gf180mcu_fd_sc_mcu7t5v0__fillcap_64
XFILLER_189_1632 vdd vss gf180mcu_fd_sc_mcu7t5v0__fill_1
XFILLER_132_2590 vdd vss gf180mcu_fd_sc_mcu7t5v0__fill_1
XFILLER_6_2091 vdd vss gf180mcu_fd_sc_mcu7t5v0__fill_2
XFILLER_85_350 vdd vss gf180mcu_fd_sc_mcu7t5v0__fillcap_4
XFILLER_41_2484 vdd vss gf180mcu_fd_sc_mcu7t5v0__fill_1
XTAP_3202 vdd vss gf180mcu_fd_sc_mcu7t5v0__filltie
XTAP_3213 vdd vss gf180mcu_fd_sc_mcu7t5v0__filltie
XTAP_3224 vdd vss gf180mcu_fd_sc_mcu7t5v0__filltie
XTAP_3235 vdd vss gf180mcu_fd_sc_mcu7t5v0__filltie
XANTENNA__0496__A2 net699 vdd vss gf180mcu_fd_sc_mcu7t5v0__antenna
XTAP_2501 vdd vss gf180mcu_fd_sc_mcu7t5v0__filltie
XTAP_3246 vdd vss gf180mcu_fd_sc_mcu7t5v0__filltie
XFILLER_218_389 vdd vss gf180mcu_fd_sc_mcu7t5v0__fill_1
XTAP_2512 vdd vss gf180mcu_fd_sc_mcu7t5v0__filltie
XTAP_3257 vdd vss gf180mcu_fd_sc_mcu7t5v0__filltie
XFILLER_245_2839 vdd vss gf180mcu_fd_sc_mcu7t5v0__fill_1
XTAP_2523 vdd vss gf180mcu_fd_sc_mcu7t5v0__filltie
XTAP_3268 vdd vss gf180mcu_fd_sc_mcu7t5v0__filltie
XTAP_2534 vdd vss gf180mcu_fd_sc_mcu7t5v0__filltie
XTAP_3279 vdd vss gf180mcu_fd_sc_mcu7t5v0__filltie
XFILLER_73_567 vdd vss gf180mcu_fd_sc_mcu7t5v0__fill_1
XFILLER_19_2910 vdd vss gf180mcu_fd_sc_mcu7t5v0__fill_1
XTAP_1800 vdd vss gf180mcu_fd_sc_mcu7t5v0__filltie
XTAP_2545 vdd vss gf180mcu_fd_sc_mcu7t5v0__filltie
XFILLER_226_2238 vdd vss gf180mcu_fd_sc_mcu7t5v0__fillcap_64
XFILLER_167_2697 vdd vss gf180mcu_fd_sc_mcu7t5v0__fill_1
XFILLER_165_2 vdd vss gf180mcu_fd_sc_mcu7t5v0__fillcap_64
XFILLER_2_1276 vdd vss gf180mcu_fd_sc_mcu7t5v0__fill_2
XTAP_1811 vdd vss gf180mcu_fd_sc_mcu7t5v0__filltie
XTAP_2556 vdd vss gf180mcu_fd_sc_mcu7t5v0__filltie
XTAP_1822 vdd vss gf180mcu_fd_sc_mcu7t5v0__filltie
XFILLER_35_2200 vdd vss gf180mcu_fd_sc_mcu7t5v0__fill_1
XTAP_2567 vdd vss gf180mcu_fd_sc_mcu7t5v0__filltie
XFILLER_208_2661 vdd vss gf180mcu_fd_sc_mcu7t5v0__fill_1
XFILLER_148_2096 vdd vss gf180mcu_fd_sc_mcu7t5v0__fillcap_64
XTAP_1833 vdd vss gf180mcu_fd_sc_mcu7t5v0__filltie
XTAP_2578 vdd vss gf180mcu_fd_sc_mcu7t5v0__filltie
XTAP_1844 vdd vss gf180mcu_fd_sc_mcu7t5v0__filltie
XTAP_2589 vdd vss gf180mcu_fd_sc_mcu7t5v0__filltie
XFILLER_109_2058 vdd vss gf180mcu_fd_sc_mcu7t5v0__fill_1
XFILLER_242_882 vdd vss gf180mcu_fd_sc_mcu7t5v0__fillcap_4
XFILLER_128_1947 vdd vss gf180mcu_fd_sc_mcu7t5v0__fillcap_4
XTAP_1855 vdd vss gf180mcu_fd_sc_mcu7t5v0__filltie
XTAP_1866 vdd vss gf180mcu_fd_sc_mcu7t5v0__filltie
XFILLER_145_2984 vdd vss gf180mcu_fd_sc_mcu7t5v0__fillcap_64
XFILLER_243_1840 vdd vss gf180mcu_fd_sc_mcu7t5v0__fill_2
XFILLER_201_212 vdd vss gf180mcu_fd_sc_mcu7t5v0__fill_1
XFILLER_158_105 vdd vss gf180mcu_fd_sc_mcu7t5v0__fill_1
XFILLER_144_1237 vdd vss gf180mcu_fd_sc_mcu7t5v0__fillcap_4
XFILLER_13_144 vdd vss gf180mcu_fd_sc_mcu7t5v0__fillcap_64
XTAP_1877 vdd vss gf180mcu_fd_sc_mcu7t5v0__filltie
XFILLER_243_1851 vdd vss gf180mcu_fd_sc_mcu7t5v0__fill_2
XTAP_1888 vdd vss gf180mcu_fd_sc_mcu7t5v0__filltie
XFILLER_196_3016 vdd vss gf180mcu_fd_sc_mcu7t5v0__fill_1
XTAP_1899 vdd vss gf180mcu_fd_sc_mcu7t5v0__filltie
XFILLER_161_2274 vdd vss gf180mcu_fd_sc_mcu7t5v0__fillcap_64
XFILLER_74_1592 vdd vss gf180mcu_fd_sc_mcu7t5v0__fillcap_4
XFILLER_9_137 vdd vss gf180mcu_fd_sc_mcu7t5v0__fillcap_4
XFILLER_139_2700 vdd vss gf180mcu_fd_sc_mcu7t5v0__fillcap_64
XFILLER_13_1841 vdd vss gf180mcu_fd_sc_mcu7t5v0__fillcap_4
XFILLER_6_833 vdd vss gf180mcu_fd_sc_mcu7t5v0__fillcap_4
XFILLER_115_709 vdd vss gf180mcu_fd_sc_mcu7t5v0__fill_1
XFILLER_237_2345 vdd vss gf180mcu_fd_sc_mcu7t5v0__fill_1
XFILLER_202_1592 vdd vss gf180mcu_fd_sc_mcu7t5v0__fillcap_4
XFILLER_181_141 vdd vss gf180mcu_fd_sc_mcu7t5v0__fill_1
XFILLER_170_815 vdd vss gf180mcu_fd_sc_mcu7t5v0__fill_1
XFILLER_5_354 vdd vss gf180mcu_fd_sc_mcu7t5v0__fill_1
XFILLER_174_2657 vdd vss gf180mcu_fd_sc_mcu7t5v0__fillcap_4
XANTENNA__0559__I0 _0187_ vdd vss gf180mcu_fd_sc_mcu7t5v0__antenna
XFILLER_116_2018 vdd vss gf180mcu_fd_sc_mcu7t5v0__fillcap_4
XFILLER_155_1344 vdd vss gf180mcu_fd_sc_mcu7t5v0__fillcap_4
XFILLER_133_3055 vdd vss gf180mcu_fd_sc_mcu7t5v0__fillcap_64
XFILLER_9_1419 vdd vss gf180mcu_fd_sc_mcu7t5v0__fill_1
XFILLER_170_1809 vdd vss gf180mcu_fd_sc_mcu7t5v0__fill_1
XFILLER_46_2373 vdd vss gf180mcu_fd_sc_mcu7t5v0__fillcap_4
XFILLER_237_1699 vdd vss gf180mcu_fd_sc_mcu7t5v0__fillcap_4
XFILLER_113_2906 vdd vss gf180mcu_fd_sc_mcu7t5v0__fillcap_4
XFILLER_3_34 vdd vss gf180mcu_fd_sc_mcu7t5v0__fill_2
XFILLER_27_1060 vdd vss gf180mcu_fd_sc_mcu7t5v0__fillcap_4
XFILLER_42_1525 vdd vss gf180mcu_fd_sc_mcu7t5v0__fill_1
XFILLER_77_851 vdd vss gf180mcu_fd_sc_mcu7t5v0__fill_1
XFILLER_67_70 vdd vss gf180mcu_fd_sc_mcu7t5v0__fill_1
XFILLER_4_2754 vdd vss gf180mcu_fd_sc_mcu7t5v0__fill_2
XTAP_5160 vdd vss gf180mcu_fd_sc_mcu7t5v0__filltie
XTAP_5171 vdd vss gf180mcu_fd_sc_mcu7t5v0__filltie
XTAP_5182 vdd vss gf180mcu_fd_sc_mcu7t5v0__filltie
XFILLER_209_3126 vdd vss gf180mcu_fd_sc_mcu7t5v0__fillcap_32
XTAP_5193 vdd vss gf180mcu_fd_sc_mcu7t5v0__filltie
XFILLER_20_1812 vdd vss gf180mcu_fd_sc_mcu7t5v0__fillcap_64
XFILLER_64_534 vdd vss gf180mcu_fd_sc_mcu7t5v0__fillcap_64
XTAP_4470 vdd vss gf180mcu_fd_sc_mcu7t5v0__filltie
XFILLER_244_3039 vdd vss gf180mcu_fd_sc_mcu7t5v0__fillcap_4
XFILLER_168_1738 vdd vss gf180mcu_fd_sc_mcu7t5v0__fill_1
XTAP_4481 vdd vss gf180mcu_fd_sc_mcu7t5v0__filltie
XFILLER_185_2764 vdd vss gf180mcu_fd_sc_mcu7t5v0__fillcap_4
XFILLER_0_1917 vdd vss gf180mcu_fd_sc_mcu7t5v0__fill_2
XFILLER_36_247 vdd vss gf180mcu_fd_sc_mcu7t5v0__fill_1
XTAP_4492 vdd vss gf180mcu_fd_sc_mcu7t5v0__filltie
XFILLER_184_1028 vdd vss gf180mcu_fd_sc_mcu7t5v0__fill_1
XTAP_3780 vdd vss gf180mcu_fd_sc_mcu7t5v0__filltie
XFILLER_127_2125 vdd vss gf180mcu_fd_sc_mcu7t5v0__fillcap_4
XFILLER_18_3154 vdd vss gf180mcu_fd_sc_mcu7t5v0__fillcap_4
XTAP_3791 vdd vss gf180mcu_fd_sc_mcu7t5v0__filltie
XFILLER_92_3083 vdd vss gf180mcu_fd_sc_mcu7t5v0__fillcap_4
XFILLER_181_1916 vdd vss gf180mcu_fd_sc_mcu7t5v0__fill_1
XFILLER_55_1919 vdd vss gf180mcu_fd_sc_mcu7t5v0__fillcap_64
XFILLER_57_2480 vdd vss gf180mcu_fd_sc_mcu7t5v0__fillcap_4
XFILLER_244_1648 vdd vss gf180mcu_fd_sc_mcu7t5v0__fillcap_4
XFILLER_18_3187 vdd vss gf180mcu_fd_sc_mcu7t5v0__fill_1
XFILLER_60_740 vdd vss gf180mcu_fd_sc_mcu7t5v0__fillcap_4
XFILLER_72_2945 vdd vss gf180mcu_fd_sc_mcu7t5v0__fill_1
XFILLER_162_1315 vdd vss gf180mcu_fd_sc_mcu7t5v0__fillcap_64
XFILLER_71_1209 vdd vss gf180mcu_fd_sc_mcu7t5v0__fillcap_64
XFILLER_232_392 vdd vss gf180mcu_fd_sc_mcu7t5v0__fillcap_64
XFILLER_177_425 vdd vss gf180mcu_fd_sc_mcu7t5v0__fill_1
XFILLER_14_2306 vdd vss gf180mcu_fd_sc_mcu7t5v0__fill_1
XFILLER_18_1741 vdd vss gf180mcu_fd_sc_mcu7t5v0__fillcap_64
XFILLER_92_1670 vdd vss gf180mcu_fd_sc_mcu7t5v0__fillcap_64
XFILLER_53_1632 vdd vss gf180mcu_fd_sc_mcu7t5v0__fill_1
XFILLER_193_918 vdd vss gf180mcu_fd_sc_mcu7t5v0__fillcap_4
XFILLER_34_1031 vdd vss gf180mcu_fd_sc_mcu7t5v0__fillcap_64
XFILLER_80_2 vdd vss gf180mcu_fd_sc_mcu7t5v0__fillcap_32
XFILLER_220_3083 vdd vss gf180mcu_fd_sc_mcu7t5v0__fillcap_4
XFILLER_242_1383 vdd vss gf180mcu_fd_sc_mcu7t5v0__fill_1
XFILLER_220_598 vdd vss gf180mcu_fd_sc_mcu7t5v0__fillcap_4
X_0985_ _0164_ _0096_ _0097_ vdd vss gf180mcu_fd_sc_mcu7t5v0__nand2_1
XFILLER_164_108 vdd vss gf180mcu_fd_sc_mcu7t5v0__fillcap_64
XFILLER_200_2945 vdd vss gf180mcu_fd_sc_mcu7t5v0__fill_1
XFILLER_105_1777 vdd vss gf180mcu_fd_sc_mcu7t5v0__fillcap_64
XFILLER_179_1845 vdd vss gf180mcu_fd_sc_mcu7t5v0__fill_1
XFILLER_31_2697 vdd vss gf180mcu_fd_sc_mcu7t5v0__fill_1
XFILLER_220_1670 vdd vss gf180mcu_fd_sc_mcu7t5v0__fillcap_64
XFILLER_121_1067 vdd vss gf180mcu_fd_sc_mcu7t5v0__fillcap_64
XFILLER_195_1135 vdd vss gf180mcu_fd_sc_mcu7t5v0__fill_1
XFILLER_12_2096 vdd vss gf180mcu_fd_sc_mcu7t5v0__fillcap_64
XFILLER_69_1138 vdd vss gf180mcu_fd_sc_mcu7t5v0__fillcap_64
XFILLER_192_2735 vdd vss gf180mcu_fd_sc_mcu7t5v0__fillcap_64
XFILLER_146_889 vdd vss gf180mcu_fd_sc_mcu7t5v0__fillcap_64
XFILLER_118_2806 vdd vss gf180mcu_fd_sc_mcu7t5v0__fillcap_64