* NGSPICE file created from processor.ext - technology: gf180mcuC

* Black-box entry subcircuit for gf180mcu_fd_sc_mcu7t5v0__fill_2 abstract view
.subckt gf180mcu_fd_sc_mcu7t5v0__fill_2 VDD VSS
.ends

* Black-box entry subcircuit for gf180mcu_fd_sc_mcu7t5v0__fill_1 abstract view
.subckt gf180mcu_fd_sc_mcu7t5v0__fill_1 VDD VSS
.ends

* Black-box entry subcircuit for gf180mcu_fd_sc_mcu7t5v0__antenna abstract view
.subckt gf180mcu_fd_sc_mcu7t5v0__antenna I VDD VSS
.ends

* Black-box entry subcircuit for gf180mcu_fd_sc_mcu7t5v0__clkbuf_1 abstract view
.subckt gf180mcu_fd_sc_mcu7t5v0__clkbuf_1 I Z VDD VSS
.ends

* Black-box entry subcircuit for gf180mcu_fd_sc_mcu7t5v0__fillcap_64 abstract view
.subckt gf180mcu_fd_sc_mcu7t5v0__fillcap_64 VDD VSS
.ends

* Black-box entry subcircuit for gf180mcu_fd_sc_mcu7t5v0__fillcap_8 abstract view
.subckt gf180mcu_fd_sc_mcu7t5v0__fillcap_8 VDD VSS
.ends

* Black-box entry subcircuit for gf180mcu_fd_sc_mcu7t5v0__fillcap_16 abstract view
.subckt gf180mcu_fd_sc_mcu7t5v0__fillcap_16 VDD VSS
.ends

* Black-box entry subcircuit for gf180mcu_fd_sc_mcu7t5v0__fillcap_4 abstract view
.subckt gf180mcu_fd_sc_mcu7t5v0__fillcap_4 VDD VSS
.ends

* Black-box entry subcircuit for gf180mcu_fd_sc_mcu7t5v0__nand2_1 abstract view
.subckt gf180mcu_fd_sc_mcu7t5v0__nand2_1 A1 A2 ZN VDD VSS
.ends

* Black-box entry subcircuit for gf180mcu_fd_sc_mcu7t5v0__fillcap_32 abstract view
.subckt gf180mcu_fd_sc_mcu7t5v0__fillcap_32 VDD VSS
.ends

* Black-box entry subcircuit for gf180mcu_fd_sc_mcu7t5v0__filltie abstract view
.subckt gf180mcu_fd_sc_mcu7t5v0__filltie VDD VSS
.ends

* Black-box entry subcircuit for gf180mcu_fd_sc_mcu7t5v0__dffrnq_1 abstract view
.subckt gf180mcu_fd_sc_mcu7t5v0__dffrnq_1 D RN CLK Q VDD VSS
.ends

* Black-box entry subcircuit for gf180mcu_fd_sc_mcu7t5v0__nor2_1 abstract view
.subckt gf180mcu_fd_sc_mcu7t5v0__nor2_1 A1 A2 ZN VDD VSS
.ends

* Black-box entry subcircuit for gf180mcu_fd_sc_mcu7t5v0__aoi221_2 abstract view
.subckt gf180mcu_fd_sc_mcu7t5v0__aoi221_2 A1 A2 B1 B2 C ZN VDD VSS
.ends

* Black-box entry subcircuit for gf180mcu_fd_sc_mcu7t5v0__nand3_1 abstract view
.subckt gf180mcu_fd_sc_mcu7t5v0__nand3_1 A1 A2 A3 ZN VDD VSS
.ends

* Black-box entry subcircuit for gf180mcu_fd_sc_mcu7t5v0__dlyc_1 abstract view
.subckt gf180mcu_fd_sc_mcu7t5v0__dlyc_1 I Z VDD VSS
.ends

* Black-box entry subcircuit for gf180mcu_fd_sc_mcu7t5v0__buf_1 abstract view
.subckt gf180mcu_fd_sc_mcu7t5v0__buf_1 I Z VDD VSS
.ends

* Black-box entry subcircuit for gf180mcu_fd_sc_mcu7t5v0__dlyb_1 abstract view
.subckt gf180mcu_fd_sc_mcu7t5v0__dlyb_1 I Z VDD VSS
.ends

* Black-box entry subcircuit for gf180mcu_fd_sc_mcu7t5v0__oai21_1 abstract view
.subckt gf180mcu_fd_sc_mcu7t5v0__oai21_1 A1 A2 B ZN VDD VSS
.ends

* Black-box entry subcircuit for gf180mcu_fd_sc_mcu7t5v0__nor4_1 abstract view
.subckt gf180mcu_fd_sc_mcu7t5v0__nor4_1 A1 A2 A3 A4 ZN VDD VSS
.ends

* Black-box entry subcircuit for gf180mcu_fd_sc_mcu7t5v0__clkbuf_8 abstract view
.subckt gf180mcu_fd_sc_mcu7t5v0__clkbuf_8 I Z VDD VSS
.ends

* Black-box entry subcircuit for gf180mcu_fd_sc_mcu7t5v0__aoi222_2 abstract view
.subckt gf180mcu_fd_sc_mcu7t5v0__aoi222_2 A1 A2 B1 B2 C1 C2 ZN VDD VSS
.ends

* Black-box entry subcircuit for gf180mcu_fd_sc_mcu7t5v0__mux2_2 abstract view
.subckt gf180mcu_fd_sc_mcu7t5v0__mux2_2 I0 I1 S Z VDD VSS
.ends

* Black-box entry subcircuit for gf180mcu_fd_sc_mcu7t5v0__clkbuf_2 abstract view
.subckt gf180mcu_fd_sc_mcu7t5v0__clkbuf_2 I Z VDD VSS
.ends

* Black-box entry subcircuit for gf180mcu_fd_sc_mcu7t5v0__endcap abstract view
.subckt gf180mcu_fd_sc_mcu7t5v0__endcap VDD VSS
.ends

* Black-box entry subcircuit for gf180mcu_fd_sc_mcu7t5v0__clkbuf_16 abstract view
.subckt gf180mcu_fd_sc_mcu7t5v0__clkbuf_16 I Z VDD VSS
.ends

* Black-box entry subcircuit for gf180mcu_fd_sc_mcu7t5v0__clkbuf_3 abstract view
.subckt gf180mcu_fd_sc_mcu7t5v0__clkbuf_3 I Z VDD VSS
.ends

* Black-box entry subcircuit for gf180mcu_fd_sc_mcu7t5v0__or3_1 abstract view
.subckt gf180mcu_fd_sc_mcu7t5v0__or3_1 A1 A2 A3 Z VDD VSS
.ends

* Black-box entry subcircuit for gf180mcu_fd_sc_mcu7t5v0__nor3_1 abstract view
.subckt gf180mcu_fd_sc_mcu7t5v0__nor3_1 A1 A2 A3 ZN VDD VSS
.ends

* Black-box entry subcircuit for gf180mcu_fd_sc_mcu7t5v0__clkinv_1 abstract view
.subckt gf180mcu_fd_sc_mcu7t5v0__clkinv_1 I ZN VDD VSS
.ends

* Black-box entry subcircuit for gf180mcu_fd_sc_mcu7t5v0__aoi21_1 abstract view
.subckt gf180mcu_fd_sc_mcu7t5v0__aoi21_1 A1 A2 B ZN VDD VSS
.ends

* Black-box entry subcircuit for gf180mcu_fd_sc_mcu7t5v0__aoi22_1 abstract view
.subckt gf180mcu_fd_sc_mcu7t5v0__aoi22_1 A1 A2 B1 B2 ZN VDD VSS
.ends

* Black-box entry subcircuit for gf180mcu_fd_sc_mcu7t5v0__nand4_1 abstract view
.subckt gf180mcu_fd_sc_mcu7t5v0__nand4_1 A1 A2 A3 A4 ZN VDD VSS
.ends

* Black-box entry subcircuit for gf180mcu_fd_sc_mcu7t5v0__nor4_4 abstract view
.subckt gf180mcu_fd_sc_mcu7t5v0__nor4_4 A1 A2 A3 A4 ZN VDD VSS
.ends

* Black-box entry subcircuit for gf180mcu_fd_sc_mcu7t5v0__oai21_2 abstract view
.subckt gf180mcu_fd_sc_mcu7t5v0__oai21_2 A1 A2 B ZN VDD VSS
.ends

* Black-box entry subcircuit for gf180mcu_fd_sc_mcu7t5v0__and2_1 abstract view
.subckt gf180mcu_fd_sc_mcu7t5v0__and2_1 A1 A2 Z VDD VSS
.ends

* Black-box entry subcircuit for gf180mcu_fd_sc_mcu7t5v0__aoi22_2 abstract view
.subckt gf180mcu_fd_sc_mcu7t5v0__aoi22_2 A1 A2 B1 B2 ZN VDD VSS
.ends

* Black-box entry subcircuit for gf180mcu_fd_sc_mcu7t5v0__oai32_1 abstract view
.subckt gf180mcu_fd_sc_mcu7t5v0__oai32_1 A1 A2 A3 B1 B2 ZN VDD VSS
.ends

* Black-box entry subcircuit for gf180mcu_fd_sc_mcu7t5v0__aoi221_1 abstract view
.subckt gf180mcu_fd_sc_mcu7t5v0__aoi221_1 A1 A2 B1 B2 C ZN VDD VSS
.ends

* Black-box entry subcircuit for gf180mcu_fd_sc_mcu7t5v0__or2_1 abstract view
.subckt gf180mcu_fd_sc_mcu7t5v0__or2_1 A1 A2 Z VDD VSS
.ends

* Black-box entry subcircuit for gf180mcu_fd_sc_mcu7t5v0__aoi211_4 abstract view
.subckt gf180mcu_fd_sc_mcu7t5v0__aoi211_4 A1 A2 B C ZN VDD VSS
.ends

* Black-box entry subcircuit for gf180mcu_fd_sc_mcu7t5v0__nor3_2 abstract view
.subckt gf180mcu_fd_sc_mcu7t5v0__nor3_2 A1 A2 A3 ZN VDD VSS
.ends

* Black-box entry subcircuit for gf180mcu_fd_sc_mcu7t5v0__nor2_2 abstract view
.subckt gf180mcu_fd_sc_mcu7t5v0__nor2_2 A1 A2 ZN VDD VSS
.ends

* Black-box entry subcircuit for gf180mcu_fd_sc_mcu7t5v0__oai22_1 abstract view
.subckt gf180mcu_fd_sc_mcu7t5v0__oai22_1 A1 A2 B1 B2 ZN VDD VSS
.ends

* Black-box entry subcircuit for gf180mcu_fd_sc_mcu7t5v0__clkinv_2 abstract view
.subckt gf180mcu_fd_sc_mcu7t5v0__clkinv_2 I ZN VDD VSS
.ends

* Black-box entry subcircuit for gf180mcu_fd_sc_mcu7t5v0__xor2_1 abstract view
.subckt gf180mcu_fd_sc_mcu7t5v0__xor2_1 A1 A2 Z VDD VSS
.ends

* Black-box entry subcircuit for gf180mcu_fd_sc_mcu7t5v0__aoi222_1 abstract view
.subckt gf180mcu_fd_sc_mcu7t5v0__aoi222_1 A1 A2 B1 B2 C1 C2 ZN VDD VSS
.ends

* Black-box entry subcircuit for gf180mcu_fd_sc_mcu7t5v0__oai211_1 abstract view
.subckt gf180mcu_fd_sc_mcu7t5v0__oai211_1 A1 A2 B C ZN VDD VSS
.ends

* Black-box entry subcircuit for gf180mcu_fd_sc_mcu7t5v0__oai31_1 abstract view
.subckt gf180mcu_fd_sc_mcu7t5v0__oai31_1 A1 A2 A3 B ZN VDD VSS
.ends

* Black-box entry subcircuit for gf180mcu_fd_sc_mcu7t5v0__oai211_2 abstract view
.subckt gf180mcu_fd_sc_mcu7t5v0__oai211_2 A1 A2 B C ZN VDD VSS
.ends

* Black-box entry subcircuit for gf180mcu_fd_sc_mcu7t5v0__and3_1 abstract view
.subckt gf180mcu_fd_sc_mcu7t5v0__and3_1 A1 A2 A3 Z VDD VSS
.ends

* Black-box entry subcircuit for gf180mcu_fd_sc_mcu7t5v0__or4_1 abstract view
.subckt gf180mcu_fd_sc_mcu7t5v0__or4_1 A1 A2 A3 A4 Z VDD VSS
.ends

* Black-box entry subcircuit for gf180mcu_fd_sc_mcu7t5v0__oai221_1 abstract view
.subckt gf180mcu_fd_sc_mcu7t5v0__oai221_1 A1 A2 B1 B2 C ZN VDD VSS
.ends

* Black-box entry subcircuit for gf180mcu_fd_sc_mcu7t5v0__dlyd_1 abstract view
.subckt gf180mcu_fd_sc_mcu7t5v0__dlyd_1 I Z VDD VSS
.ends

* Black-box entry subcircuit for gf180mcu_fd_sc_mcu7t5v0__xnor2_1 abstract view
.subckt gf180mcu_fd_sc_mcu7t5v0__xnor2_1 A1 A2 ZN VDD VSS
.ends

* Black-box entry subcircuit for gf180mcu_fd_sc_mcu7t5v0__and4_2 abstract view
.subckt gf180mcu_fd_sc_mcu7t5v0__and4_2 A1 A2 A3 A4 Z VDD VSS
.ends

* Black-box entry subcircuit for gf180mcu_fd_sc_mcu7t5v0__nor4_2 abstract view
.subckt gf180mcu_fd_sc_mcu7t5v0__nor4_2 A1 A2 A3 A4 ZN VDD VSS
.ends

* Black-box entry subcircuit for gf180mcu_fd_sc_mcu7t5v0__and4_1 abstract view
.subckt gf180mcu_fd_sc_mcu7t5v0__and4_1 A1 A2 A3 A4 Z VDD VSS
.ends

* Black-box entry subcircuit for gf180mcu_fd_sc_mcu7t5v0__xor3_1 abstract view
.subckt gf180mcu_fd_sc_mcu7t5v0__xor3_1 A1 A2 A3 Z VDD VSS
.ends

* Black-box entry subcircuit for gf180mcu_fd_sc_mcu7t5v0__aoi22_4 abstract view
.subckt gf180mcu_fd_sc_mcu7t5v0__aoi22_4 A1 A2 B1 B2 ZN VDD VSS
.ends

* Black-box entry subcircuit for gf180mcu_fd_sc_mcu7t5v0__aoi211_2 abstract view
.subckt gf180mcu_fd_sc_mcu7t5v0__aoi211_2 A1 A2 B C ZN VDD VSS
.ends

* Black-box entry subcircuit for gf180mcu_fd_sc_mcu7t5v0__oai211_4 abstract view
.subckt gf180mcu_fd_sc_mcu7t5v0__oai211_4 A1 A2 B C ZN VDD VSS
.ends

* Black-box entry subcircuit for gf180mcu_fd_sc_mcu7t5v0__dffsnq_1 abstract view
.subckt gf180mcu_fd_sc_mcu7t5v0__dffsnq_1 D SETN CLK Q VDD VSS
.ends

* Black-box entry subcircuit for gf180mcu_fd_sc_mcu7t5v0__or4_2 abstract view
.subckt gf180mcu_fd_sc_mcu7t5v0__or4_2 A1 A2 A3 A4 Z VDD VSS
.ends

* Black-box entry subcircuit for gf180mcu_fd_sc_mcu7t5v0__nand4_2 abstract view
.subckt gf180mcu_fd_sc_mcu7t5v0__nand4_2 A1 A2 A3 A4 ZN VDD VSS
.ends

* Black-box entry subcircuit for gf180mcu_fd_sc_mcu7t5v0__aoi211_1 abstract view
.subckt gf180mcu_fd_sc_mcu7t5v0__aoi211_1 A1 A2 B C ZN VDD VSS
.ends

* Black-box entry subcircuit for gf180mcu_fd_sc_mcu7t5v0__nand4_4 abstract view
.subckt gf180mcu_fd_sc_mcu7t5v0__nand4_4 A1 A2 A3 A4 ZN VDD VSS
.ends

* Black-box entry subcircuit for gf180mcu_fd_sc_mcu7t5v0__nor3_4 abstract view
.subckt gf180mcu_fd_sc_mcu7t5v0__nor3_4 A1 A2 A3 ZN VDD VSS
.ends

* Black-box entry subcircuit for gf180mcu_fd_sc_mcu7t5v0__nand3_2 abstract view
.subckt gf180mcu_fd_sc_mcu7t5v0__nand3_2 A1 A2 A3 ZN VDD VSS
.ends

* Black-box entry subcircuit for gf180mcu_fd_sc_mcu7t5v0__buf_2 abstract view
.subckt gf180mcu_fd_sc_mcu7t5v0__buf_2 I Z VDD VSS
.ends

* Black-box entry subcircuit for gf180mcu_fd_sc_mcu7t5v0__dffrnq_2 abstract view
.subckt gf180mcu_fd_sc_mcu7t5v0__dffrnq_2 D RN CLK Q VDD VSS
.ends

* Black-box entry subcircuit for gf180mcu_fd_sc_mcu7t5v0__inv_1 abstract view
.subckt gf180mcu_fd_sc_mcu7t5v0__inv_1 I ZN VDD VSS
.ends

* Black-box entry subcircuit for gf180mcu_fd_sc_mcu7t5v0__nand2_2 abstract view
.subckt gf180mcu_fd_sc_mcu7t5v0__nand2_2 A1 A2 ZN VDD VSS
.ends

.subckt processor Dataw_en Serial_input Serial_output clk data_mem_addr[0] data_mem_addr[1]
+ data_mem_addr[2] data_mem_addr[3] data_mem_addr[4] data_mem_addr[5] data_mem_addr[6]
+ data_mem_addr[7] hlt instr[0] instr[10] instr[11] instr[12] instr[13] instr[14]
+ instr[15] instr[1] instr[2] instr[3] instr[4] instr[5] instr[6] instr[7] instr[8]
+ instr[9] instr_mem_addr[0] instr_mem_addr[10] instr_mem_addr[11] instr_mem_addr[12]
+ instr_mem_addr[1] instr_mem_addr[2] instr_mem_addr[3] instr_mem_addr[4] instr_mem_addr[5]
+ instr_mem_addr[6] instr_mem_addr[7] instr_mem_addr[8] instr_mem_addr[9] read_data[0]
+ read_data[10] read_data[11] read_data[12] read_data[13] read_data[14] read_data[15]
+ read_data[1] read_data[2] read_data[3] read_data[4] read_data[5] read_data[6] read_data[7]
+ read_data[8] read_data[9] reset start vdd vss write_data[0] write_data[10] write_data[11]
+ write_data[12] write_data[13] write_data[14] write_data[15] write_data[1] write_data[2]
+ write_data[3] write_data[4] write_data[5] write_data[6] write_data[7] write_data[8]
+ write_data[9]
XFILLER_228_813 vdd vss gf180mcu_fd_sc_mcu7t5v0__fill_2
XFILLER_171_1371 vdd vss gf180mcu_fd_sc_mcu7t5v0__fill_2
XFILLER_234_1092 vdd vss gf180mcu_fd_sc_mcu7t5v0__fill_2
XFILLER_189_1109 vdd vss gf180mcu_fd_sc_mcu7t5v0__fill_2
XFILLER_95_851 vdd vss gf180mcu_fd_sc_mcu7t5v0__fill_1
XANTENNA__3140__A1 _2205_ vdd vss gf180mcu_fd_sc_mcu7t5v0__antenna
X_3155_ _0934_ _0935_ vdd vss gf180mcu_fd_sc_mcu7t5v0__clkbuf_1
XFILLER_228_868 vdd vss gf180mcu_fd_sc_mcu7t5v0__fill_1
XFILLER_27_428 vdd vss gf180mcu_fd_sc_mcu7t5v0__fillcap_64
XFILLER_82_534 vdd vss gf180mcu_fd_sc_mcu7t5v0__fillcap_64
XFILLER_167_1418 vdd vss gf180mcu_fd_sc_mcu7t5v0__fill_2
X_3086_ _0882_ _0883_ vdd vss gf180mcu_fd_sc_mcu7t5v0__clkbuf_1
XFILLER_243_838 vdd vss gf180mcu_fd_sc_mcu7t5v0__fillcap_8
XFILLER_227_389 vdd vss gf180mcu_fd_sc_mcu7t5v0__fillcap_16
XFILLER_199_208 vdd vss gf180mcu_fd_sc_mcu7t5v0__fillcap_4
XFILLER_54_247 vdd vss gf180mcu_fd_sc_mcu7t5v0__fill_1
XANTENNA__5160__CLK clknet_leaf_93_clk vdd vss gf180mcu_fd_sc_mcu7t5v0__antenna
XANTENNA__2953__I _0782_ vdd vss gf180mcu_fd_sc_mcu7t5v0__antenna
XFILLER_130_1090 vdd vss gf180mcu_fd_sc_mcu7t5v0__fillcap_4
XANTENNA__4640__A1 _1907_ vdd vss gf180mcu_fd_sc_mcu7t5v0__antenna
XFILLER_58_1757 vdd vss gf180mcu_fd_sc_mcu7t5v0__fill_2
XANTENNA__5121__RN net161 vdd vss gf180mcu_fd_sc_mcu7t5v0__antenna
XFILLER_223_551 vdd vss gf180mcu_fd_sc_mcu7t5v0__fill_2
XFILLER_196_904 vdd vss gf180mcu_fd_sc_mcu7t5v0__fill_2
XFILLER_23_634 vdd vss gf180mcu_fd_sc_mcu7t5v0__fillcap_4
XFILLER_1_1490 vdd vss gf180mcu_fd_sc_mcu7t5v0__fill_1
XFILLER_145_1738 vdd vss gf180mcu_fd_sc_mcu7t5v0__fillcap_16
XFILLER_243_1339 vdd vss gf180mcu_fd_sc_mcu7t5v0__fillcap_4
XFILLER_161_1028 vdd vss gf180mcu_fd_sc_mcu7t5v0__fill_2
XFILLER_195_425 vdd vss gf180mcu_fd_sc_mcu7t5v0__fill_1
XFILLER_165_1197 vdd vss gf180mcu_fd_sc_mcu7t5v0__fill_2
XFILLER_52_1312 vdd vss gf180mcu_fd_sc_mcu7t5v0__fill_1
XFILLER_149_831 vdd vss gf180mcu_fd_sc_mcu7t5v0__fillcap_4
XFILLER_149_842 vdd vss gf180mcu_fd_sc_mcu7t5v0__fillcap_8
X_3988_ _0882_ _1528_ vdd vss gf180mcu_fd_sc_mcu7t5v0__clkbuf_1
XFILLER_206_1161 vdd vss gf180mcu_fd_sc_mcu7t5v0__fillcap_8
XFILLER_206_1183 vdd vss gf180mcu_fd_sc_mcu7t5v0__fill_2
XANTENNA__4878__CLK clknet_leaf_15_clk vdd vss gf180mcu_fd_sc_mcu7t5v0__antenna
X_2939_ net49 _0765_ _0770_ vdd vss gf180mcu_fd_sc_mcu7t5v0__nand2_1
XFILLER_206_1194 vdd vss gf180mcu_fd_sc_mcu7t5v0__fill_2
XFILLER_182_108 vdd vss gf180mcu_fd_sc_mcu7t5v0__fillcap_64
XANTENNA__2954__A1 _0781_ vdd vss gf180mcu_fd_sc_mcu7t5v0__antenna
XFILLER_104_1457 vdd vss gf180mcu_fd_sc_mcu7t5v0__fillcap_64
XFILLER_148_385 vdd vss gf180mcu_fd_sc_mcu7t5v0__fillcap_4
XFILLER_178_1525 vdd vss gf180mcu_fd_sc_mcu7t5v0__fill_1
XFILLER_87_1419 vdd vss gf180mcu_fd_sc_mcu7t5v0__fill_1
X_4609_ _1923_ _1954_ _1956_ vdd vss gf180mcu_fd_sc_mcu7t5v0__nand2_1
XFILLER_102_1170 vdd vss gf180mcu_fd_sc_mcu7t5v0__fill_1
XFILLER_164_889 vdd vss gf180mcu_fd_sc_mcu7t5v0__fill_1
XFILLER_11_1064 vdd vss gf180mcu_fd_sc_mcu7t5v0__fill_1
XFILLER_123_208 vdd vss gf180mcu_fd_sc_mcu7t5v0__fillcap_4
XANTENNA__5188__RN net80 vdd vss gf180mcu_fd_sc_mcu7t5v0__antenna
XFILLER_191_1703 vdd vss gf180mcu_fd_sc_mcu7t5v0__fill_1
XFILLER_65_1706 vdd vss gf180mcu_fd_sc_mcu7t5v0__fillcap_32
XFILLER_117_783 vdd vss gf180mcu_fd_sc_mcu7t5v0__fillcap_64
XFILLER_2_527 vdd vss gf180mcu_fd_sc_mcu7t5v0__fillcap_4
XFILLER_172_1102 vdd vss gf180mcu_fd_sc_mcu7t5v0__fill_1
XFILLER_117_66 vdd vss gf180mcu_fd_sc_mcu7t5v0__fillcap_4
XFILLER_191_1758 vdd vss gf180mcu_fd_sc_mcu7t5v0__fill_1
XFILLER_78_818 vdd vss gf180mcu_fd_sc_mcu7t5v0__fillcap_64
XFILLER_89_144 vdd vss gf180mcu_fd_sc_mcu7t5v0__fillcap_64
XFILLER_105_989 vdd vss gf180mcu_fd_sc_mcu7t5v0__fillcap_4
XFILLER_133_1108 vdd vss gf180mcu_fd_sc_mcu7t5v0__fill_2
XFILLER_213_1132 vdd vss gf180mcu_fd_sc_mcu7t5v0__fill_1
XFILLER_58_531 vdd vss gf180mcu_fd_sc_mcu7t5v0__fill_1
XFILLER_246_632 vdd vss gf180mcu_fd_sc_mcu7t5v0__fillcap_4
XFILLER_19_918 vdd vss gf180mcu_fd_sc_mcu7t5v0__fillcap_4
XFILLER_115_1564 vdd vss gf180mcu_fd_sc_mcu7t5v0__fillcap_64
XFILLER_189_1632 vdd vss gf180mcu_fd_sc_mcu7t5v0__fill_1
XFILLER_85_350 vdd vss gf180mcu_fd_sc_mcu7t5v0__fillcap_4
XTAP_3202 vdd vss gf180mcu_fd_sc_mcu7t5v0__filltie
XTAP_3213 vdd vss gf180mcu_fd_sc_mcu7t5v0__filltie
XFILLER_213_1198 vdd vss gf180mcu_fd_sc_mcu7t5v0__fillcap_8
XTAP_3224 vdd vss gf180mcu_fd_sc_mcu7t5v0__filltie
XTAP_3235 vdd vss gf180mcu_fd_sc_mcu7t5v0__filltie
XFILLER_234_827 vdd vss gf180mcu_fd_sc_mcu7t5v0__fill_2
XTAP_2501 vdd vss gf180mcu_fd_sc_mcu7t5v0__filltie
XANTENNA__2890__B1 _0727_ vdd vss gf180mcu_fd_sc_mcu7t5v0__antenna
XTAP_3246 vdd vss gf180mcu_fd_sc_mcu7t5v0__filltie
XANTENNA_output37_I net37 vdd vss gf180mcu_fd_sc_mcu7t5v0__antenna
XFILLER_218_389 vdd vss gf180mcu_fd_sc_mcu7t5v0__fill_1
XTAP_2512 vdd vss gf180mcu_fd_sc_mcu7t5v0__filltie
XTAP_3257 vdd vss gf180mcu_fd_sc_mcu7t5v0__filltie
XTAP_2523 vdd vss gf180mcu_fd_sc_mcu7t5v0__filltie
XTAP_3268 vdd vss gf180mcu_fd_sc_mcu7t5v0__filltie
XANTENNA__2863__I Arithmetic_Logic_Unit.ALU_001.p_Z vdd vss gf180mcu_fd_sc_mcu7t5v0__antenna
XFILLER_73_567 vdd vss gf180mcu_fd_sc_mcu7t5v0__fill_1
XTAP_2534 vdd vss gf180mcu_fd_sc_mcu7t5v0__filltie
XTAP_3279 vdd vss gf180mcu_fd_sc_mcu7t5v0__filltie
XTAP_1800 vdd vss gf180mcu_fd_sc_mcu7t5v0__filltie
XTAP_2545 vdd vss gf180mcu_fd_sc_mcu7t5v0__filltie
XTAP_1811 vdd vss gf180mcu_fd_sc_mcu7t5v0__filltie
XTAP_2556 vdd vss gf180mcu_fd_sc_mcu7t5v0__filltie
XFILLER_165_2 vdd vss gf180mcu_fd_sc_mcu7t5v0__fillcap_64
XANTENNA__4631__A1 _1940_ vdd vss gf180mcu_fd_sc_mcu7t5v0__antenna
XTAP_1822 vdd vss gf180mcu_fd_sc_mcu7t5v0__filltie
XANTENNA__5112__RN net168 vdd vss gf180mcu_fd_sc_mcu7t5v0__antenna
XTAP_2567 vdd vss gf180mcu_fd_sc_mcu7t5v0__filltie
XTAP_1833 vdd vss gf180mcu_fd_sc_mcu7t5v0__filltie
XTAP_2578 vdd vss gf180mcu_fd_sc_mcu7t5v0__filltie
XTAP_1844 vdd vss gf180mcu_fd_sc_mcu7t5v0__filltie
XTAP_2589 vdd vss gf180mcu_fd_sc_mcu7t5v0__filltie
XTAP_1855 vdd vss gf180mcu_fd_sc_mcu7t5v0__filltie
XTAP_1866 vdd vss gf180mcu_fd_sc_mcu7t5v0__filltie
XFILLER_183_1275 vdd vss gf180mcu_fd_sc_mcu7t5v0__fill_2
XFILLER_201_212 vdd vss gf180mcu_fd_sc_mcu7t5v0__fill_1
XTAP_1877 vdd vss gf180mcu_fd_sc_mcu7t5v0__filltie
XFILLER_13_144 vdd vss gf180mcu_fd_sc_mcu7t5v0__fillcap_64
XFILLER_158_105 vdd vss gf180mcu_fd_sc_mcu7t5v0__fill_1
XFILLER_241_392 vdd vss gf180mcu_fd_sc_mcu7t5v0__fillcap_16
XTAP_1888 vdd vss gf180mcu_fd_sc_mcu7t5v0__filltie
XFILLER_144_1248 vdd vss gf180mcu_fd_sc_mcu7t5v0__fill_2
XTAP_1899 vdd vss gf180mcu_fd_sc_mcu7t5v0__filltie
XFILLER_74_1592 vdd vss gf180mcu_fd_sc_mcu7t5v0__fillcap_4
XFILLER_9_137 vdd vss gf180mcu_fd_sc_mcu7t5v0__fillcap_4
XANTENNA__3694__I _1290_ vdd vss gf180mcu_fd_sc_mcu7t5v0__antenna
XANTENNA__2945__A1 Control_unit1.instr_stage1\[0\] vdd vss gf180mcu_fd_sc_mcu7t5v0__antenna
XFILLER_6_811 vdd vss gf180mcu_fd_sc_mcu7t5v0__fillcap_4
XFILLER_220_1169 vdd vss gf180mcu_fd_sc_mcu7t5v0__fill_2
XFILLER_115_709 vdd vss gf180mcu_fd_sc_mcu7t5v0__fill_1
XFILLER_202_1592 vdd vss gf180mcu_fd_sc_mcu7t5v0__fillcap_4
XFILLER_181_141 vdd vss gf180mcu_fd_sc_mcu7t5v0__fill_1
XFILLER_5_354 vdd vss gf180mcu_fd_sc_mcu7t5v0__fill_1
XFILLER_170_815 vdd vss gf180mcu_fd_sc_mcu7t5v0__fill_1
XANTENNA__4698__A1 _0976_ vdd vss gf180mcu_fd_sc_mcu7t5v0__antenna
XANTENNA__5179__RN net210 vdd vss gf180mcu_fd_sc_mcu7t5v0__antenna
XANTENNA__5033__CLK clknet_leaf_73_clk vdd vss gf180mcu_fd_sc_mcu7t5v0__antenna
XFILLER_190_1202 vdd vss gf180mcu_fd_sc_mcu7t5v0__fillcap_4
XFILLER_218_1054 vdd vss gf180mcu_fd_sc_mcu7t5v0__fill_2
XFILLER_9_1419 vdd vss gf180mcu_fd_sc_mcu7t5v0__fill_1
XFILLER_155_1344 vdd vss gf180mcu_fd_sc_mcu7t5v0__fillcap_4
XFILLER_237_1699 vdd vss gf180mcu_fd_sc_mcu7t5v0__fillcap_4
XFILLER_155_1366 vdd vss gf180mcu_fd_sc_mcu7t5v0__fill_2
XFILLER_27_1060 vdd vss gf180mcu_fd_sc_mcu7t5v0__fillcap_4
XFILLER_42_1525 vdd vss gf180mcu_fd_sc_mcu7t5v0__fill_1
XANTENNA__3122__A1 _0828_ vdd vss gf180mcu_fd_sc_mcu7t5v0__antenna
XFILLER_77_851 vdd vss gf180mcu_fd_sc_mcu7t5v0__fill_1
XANTENNA__5183__CLK clknet_leaf_84_clk vdd vss gf180mcu_fd_sc_mcu7t5v0__antenna
XFILLER_67_70 vdd vss gf180mcu_fd_sc_mcu7t5v0__fill_1
XFILLER_231_1265 vdd vss gf180mcu_fd_sc_mcu7t5v0__fill_2
XTAP_5160 vdd vss gf180mcu_fd_sc_mcu7t5v0__filltie
XTAP_5171 vdd vss gf180mcu_fd_sc_mcu7t5v0__filltie
XTAP_5182 vdd vss gf180mcu_fd_sc_mcu7t5v0__filltie
XTAP_5193 vdd vss gf180mcu_fd_sc_mcu7t5v0__filltie
XFILLER_64_534 vdd vss gf180mcu_fd_sc_mcu7t5v0__fillcap_64
XTAP_4470 vdd vss gf180mcu_fd_sc_mcu7t5v0__filltie
XFILLER_188_1153 vdd vss gf180mcu_fd_sc_mcu7t5v0__fill_1
XFILLER_225_838 vdd vss gf180mcu_fd_sc_mcu7t5v0__fill_2
XTAP_4481 vdd vss gf180mcu_fd_sc_mcu7t5v0__filltie
XFILLER_168_1738 vdd vss gf180mcu_fd_sc_mcu7t5v0__fill_1
XFILLER_36_247 vdd vss gf180mcu_fd_sc_mcu7t5v0__fill_1
XTAP_4492 vdd vss gf180mcu_fd_sc_mcu7t5v0__filltie
XANTENNA_fanout260_I net354 vdd vss gf180mcu_fd_sc_mcu7t5v0__antenna
XFILLER_184_1028 vdd vss gf180mcu_fd_sc_mcu7t5v0__fill_1
X_4960_ _0122_ net344 clknet_leaf_46_clk net24 vdd vss gf180mcu_fd_sc_mcu7t5v0__dffrnq_1
XFILLER_188_1197 vdd vss gf180mcu_fd_sc_mcu7t5v0__fill_2
XTAP_3780 vdd vss gf180mcu_fd_sc_mcu7t5v0__filltie
XANTENNA__4622__A1 _1884_ vdd vss gf180mcu_fd_sc_mcu7t5v0__antenna
XTAP_3791 vdd vss gf180mcu_fd_sc_mcu7t5v0__filltie
X_3911_ _1160_ _1474_ vdd vss gf180mcu_fd_sc_mcu7t5v0__clkbuf_1
X_4891_ net3 net123 clknet_leaf_9_clk Control_unit1.instr_stage1\[10\] vdd vss gf180mcu_fd_sc_mcu7t5v0__dffrnq_1
XFILLER_60_740 vdd vss gf180mcu_fd_sc_mcu7t5v0__fillcap_4
XFILLER_220_510 vdd vss gf180mcu_fd_sc_mcu7t5v0__fill_2
XFILLER_162_1315 vdd vss gf180mcu_fd_sc_mcu7t5v0__fill_1
XFILLER_71_1209 vdd vss gf180mcu_fd_sc_mcu7t5v0__fillcap_64
XFILLER_232_392 vdd vss gf180mcu_fd_sc_mcu7t5v0__fill_2
XFILLER_225_1047 vdd vss gf180mcu_fd_sc_mcu7t5v0__fill_2
XFILLER_177_425 vdd vss gf180mcu_fd_sc_mcu7t5v0__fill_1
XFILLER_18_1741 vdd vss gf180mcu_fd_sc_mcu7t5v0__fillcap_16
XFILLER_92_1670 vdd vss gf180mcu_fd_sc_mcu7t5v0__fillcap_64
X_3842_ _1303_ _1425_ _1426_ vdd vss gf180mcu_fd_sc_mcu7t5v0__nand2_1
XFILLER_53_1632 vdd vss gf180mcu_fd_sc_mcu7t5v0__fill_1
XANTENNA__3189__A1 _0828_ vdd vss gf180mcu_fd_sc_mcu7t5v0__antenna
XFILLER_34_1031 vdd vss gf180mcu_fd_sc_mcu7t5v0__fillcap_64
XFILLER_80_2 vdd vss gf180mcu_fd_sc_mcu7t5v0__fillcap_32
X_3773_ _1352_ _1381_ vdd vss gf180mcu_fd_sc_mcu7t5v0__clkbuf_1
XFILLER_164_108 vdd vss gf180mcu_fd_sc_mcu7t5v0__fillcap_64
X_2724_ _0573_ _0579_ _0583_ vdd vss gf180mcu_fd_sc_mcu7t5v0__nor2_1
XFILLER_160_1094 vdd vss gf180mcu_fd_sc_mcu7t5v0__fill_2
XFILLER_220_1670 vdd vss gf180mcu_fd_sc_mcu7t5v0__fillcap_64
XFILLER_121_1067 vdd vss gf180mcu_fd_sc_mcu7t5v0__fillcap_64
XFILLER_195_1135 vdd vss gf180mcu_fd_sc_mcu7t5v0__fill_1
XFILLER_69_1138 vdd vss gf180mcu_fd_sc_mcu7t5v0__fillcap_64
X_2655_ _2337_ _2137_ _2138_ _2318_ _2339_ _2340_ vdd vss gf180mcu_fd_sc_mcu7t5v0__aoi221_2
XFILLER_146_889 vdd vss gf180mcu_fd_sc_mcu7t5v0__fill_1
XFILLER_103_1490 vdd vss gf180mcu_fd_sc_mcu7t5v0__fill_1
XFILLER_105_208 vdd vss gf180mcu_fd_sc_mcu7t5v0__fillcap_4
XFILLER_173_697 vdd vss gf180mcu_fd_sc_mcu7t5v0__fill_2
XFILLER_160_314 vdd vss gf180mcu_fd_sc_mcu7t5v0__fillcap_4
X_5374_ _0536_ net321 clknet_leaf_51_clk net22 vdd vss gf180mcu_fd_sc_mcu7t5v0__dffrnq_1
XFILLER_161_859 vdd vss gf180mcu_fd_sc_mcu7t5v0__fill_2
X_2586_ _2249_ _2263_ _2274_ _2275_ vdd vss gf180mcu_fd_sc_mcu7t5v0__nand3_1
XFILLER_173_1422 vdd vss gf180mcu_fd_sc_mcu7t5v0__fillcap_64
XANTENNA__4917__RN net291 vdd vss gf180mcu_fd_sc_mcu7t5v0__antenna
XANTENNA__2948__I _0777_ vdd vss gf180mcu_fd_sc_mcu7t5v0__antenna
X_4325_ _1659_ _1753_ _1759_ vdd vss gf180mcu_fd_sc_mcu7t5v0__nand2_1
Xfanout105 net107 net105 vdd vss gf180mcu_fd_sc_mcu7t5v0__dlyc_1
Xfanout116 net117 net116 vdd vss gf180mcu_fd_sc_mcu7t5v0__buf_1
Xfanout127 net128 net127 vdd vss gf180mcu_fd_sc_mcu7t5v0__dlyb_1
Xfanout138 net140 net138 vdd vss gf180mcu_fd_sc_mcu7t5v0__buf_1
Xfanout149 net150 net149 vdd vss gf180mcu_fd_sc_mcu7t5v0__dlyc_1
XFILLER_101_425 vdd vss gf180mcu_fd_sc_mcu7t5v0__fill_1
X_4256_ _1603_ _1705_ _1709_ _0385_ vdd vss gf180mcu_fd_sc_mcu7t5v0__oai21_1
XANTENNA__3113__A1 _2322_ vdd vss gf180mcu_fd_sc_mcu7t5v0__antenna
XFILLER_228_632 vdd vss gf180mcu_fd_sc_mcu7t5v0__fill_1
X_3207_ _0970_ _0971_ vdd vss gf180mcu_fd_sc_mcu7t5v0__clkbuf_1
XFILLER_67_350 vdd vss gf180mcu_fd_sc_mcu7t5v0__fillcap_4
XFILLER_80_1095 vdd vss gf180mcu_fd_sc_mcu7t5v0__fillcap_4
X_4187_ _1627_ _1664_ _1666_ vdd vss gf180mcu_fd_sc_mcu7t5v0__nand2_1
XFILLER_228_665 vdd vss gf180mcu_fd_sc_mcu7t5v0__fill_2
XFILLER_228_676 vdd vss gf180mcu_fd_sc_mcu7t5v0__fill_1
X_3138_ _2363_ _0584_ _0911_ _0918_ _0919_ vdd vss gf180mcu_fd_sc_mcu7t5v0__nor4_1
XFILLER_216_827 vdd vss gf180mcu_fd_sc_mcu7t5v0__fill_2
XFILLER_83_854 vdd vss gf180mcu_fd_sc_mcu7t5v0__fillcap_64
XFILLER_242_101 vdd vss gf180mcu_fd_sc_mcu7t5v0__fillcap_4
XFILLER_216_849 vdd vss gf180mcu_fd_sc_mcu7t5v0__fill_2
XFILLER_55_567 vdd vss gf180mcu_fd_sc_mcu7t5v0__fill_1
XFILLER_110_1450 vdd vss gf180mcu_fd_sc_mcu7t5v0__fillcap_4
XFILLER_58_1521 vdd vss gf180mcu_fd_sc_mcu7t5v0__fillcap_4
X_3069_ _0865_ _0866_ _0867_ vdd vss gf180mcu_fd_sc_mcu7t5v0__nand2_1
XTAP_1107 vdd vss gf180mcu_fd_sc_mcu7t5v0__filltie
XFILLER_231_819 vdd vss gf180mcu_fd_sc_mcu7t5v0__fill_2
XANTENNA__3416__A2 _1117_ vdd vss gf180mcu_fd_sc_mcu7t5v0__antenna
XTAP_1118 vdd vss gf180mcu_fd_sc_mcu7t5v0__filltie
XTAP_1129 vdd vss gf180mcu_fd_sc_mcu7t5v0__filltie
XFILLER_208_1212 vdd vss gf180mcu_fd_sc_mcu7t5v0__fill_2
XFILLER_230_318 vdd vss gf180mcu_fd_sc_mcu7t5v0__fill_1
XFILLER_196_723 vdd vss gf180mcu_fd_sc_mcu7t5v0__fillcap_8
XFILLER_50_250 vdd vss gf180mcu_fd_sc_mcu7t5v0__fillcap_64
XFILLER_145_1557 vdd vss gf180mcu_fd_sc_mcu7t5v0__fillcap_4
XFILLER_208_1278 vdd vss gf180mcu_fd_sc_mcu7t5v0__fill_1
XFILLER_208_1289 vdd vss gf180mcu_fd_sc_mcu7t5v0__fill_2
XFILLER_71_1754 vdd vss gf180mcu_fd_sc_mcu7t5v0__fillcap_4
XFILLER_17_1273 vdd vss gf180mcu_fd_sc_mcu7t5v0__fillcap_4
XFILLER_32_1738 vdd vss gf180mcu_fd_sc_mcu7t5v0__fill_1
XFILLER_183_428 vdd vss gf180mcu_fd_sc_mcu7t5v0__fillcap_64
XFILLER_177_992 vdd vss gf180mcu_fd_sc_mcu7t5v0__fill_2
XFILLER_149_694 vdd vss gf180mcu_fd_sc_mcu7t5v0__fill_2
XANTENNA__5056__CLK clknet_leaf_78_clk vdd vss gf180mcu_fd_sc_mcu7t5v0__antenna
XFILLER_152_815 vdd vss gf180mcu_fd_sc_mcu7t5v0__fill_1
XFILLER_163_141 vdd vss gf180mcu_fd_sc_mcu7t5v0__fill_1
XANTENNA__3019__I _0834_ vdd vss gf180mcu_fd_sc_mcu7t5v0__antenna
XFILLER_3_847 vdd vss gf180mcu_fd_sc_mcu7t5v0__fillcap_4
XANTENNA__3352__A1 _0983_ vdd vss gf180mcu_fd_sc_mcu7t5v0__antenna
XFILLER_137_1030 vdd vss gf180mcu_fd_sc_mcu7t5v0__fill_2
XFILLER_176_1090 vdd vss gf180mcu_fd_sc_mcu7t5v0__fill_2
XFILLER_137_1074 vdd vss gf180mcu_fd_sc_mcu7t5v0__fill_2
XFILLER_152_1528 vdd vss gf180mcu_fd_sc_mcu7t5v0__fillcap_64
XFILLER_215_1249 vdd vss gf180mcu_fd_sc_mcu7t5v0__fill_2
XANTENNA__3104__A1 _0802_ vdd vss gf180mcu_fd_sc_mcu7t5v0__antenna
XFILLER_59_851 vdd vss gf180mcu_fd_sc_mcu7t5v0__fill_1
XFILLER_24_1244 vdd vss gf180mcu_fd_sc_mcu7t5v0__fillcap_64
XFILLER_232_1596 vdd vss gf180mcu_fd_sc_mcu7t5v0__fill_1
XFILLER_98_1312 vdd vss gf180mcu_fd_sc_mcu7t5v0__fill_1
XFILLER_207_805 vdd vss gf180mcu_fd_sc_mcu7t5v0__fill_2
XANTENNA__5333__RN net271 vdd vss gf180mcu_fd_sc_mcu7t5v0__antenna
XTAP_3010 vdd vss gf180mcu_fd_sc_mcu7t5v0__filltie
XFILLER_234_602 vdd vss gf180mcu_fd_sc_mcu7t5v0__fill_1
XFILLER_46_534 vdd vss gf180mcu_fd_sc_mcu7t5v0__fillcap_64
XTAP_3021 vdd vss gf180mcu_fd_sc_mcu7t5v0__filltie
XFILLER_207_838 vdd vss gf180mcu_fd_sc_mcu7t5v0__fill_2
XTAP_3032 vdd vss gf180mcu_fd_sc_mcu7t5v0__filltie
XFILLER_37_73 vdd vss gf180mcu_fd_sc_mcu7t5v0__fillcap_64
XFILLER_18_247 vdd vss gf180mcu_fd_sc_mcu7t5v0__fill_1
XTAP_3043 vdd vss gf180mcu_fd_sc_mcu7t5v0__filltie
XFILLER_246_495 vdd vss gf180mcu_fd_sc_mcu7t5v0__fill_2
XANTENNA__2593__I Arithmetic_Logic_Unit.ALU_001.Y_CY\[10\].i2 vdd vss gf180mcu_fd_sc_mcu7t5v0__antenna
XTAP_3054 vdd vss gf180mcu_fd_sc_mcu7t5v0__filltie
XTAP_2320 vdd vss gf180mcu_fd_sc_mcu7t5v0__filltie
XTAP_3065 vdd vss gf180mcu_fd_sc_mcu7t5v0__filltie
XFILLER_222_808 vdd vss gf180mcu_fd_sc_mcu7t5v0__fill_2
XFILLER_185_1348 vdd vss gf180mcu_fd_sc_mcu7t5v0__fill_1
XTAP_2331 vdd vss gf180mcu_fd_sc_mcu7t5v0__filltie
XTAP_3076 vdd vss gf180mcu_fd_sc_mcu7t5v0__filltie
XTAP_2342 vdd vss gf180mcu_fd_sc_mcu7t5v0__filltie
XTAP_3087 vdd vss gf180mcu_fd_sc_mcu7t5v0__filltie
XTAP_2353 vdd vss gf180mcu_fd_sc_mcu7t5v0__filltie
XTAP_3098 vdd vss gf180mcu_fd_sc_mcu7t5v0__filltie
XFILLER_226_1312 vdd vss gf180mcu_fd_sc_mcu7t5v0__fill_1
XTAP_2364 vdd vss gf180mcu_fd_sc_mcu7t5v0__filltie
XTAP_1630 vdd vss gf180mcu_fd_sc_mcu7t5v0__filltie
XFILLER_2_1095 vdd vss gf180mcu_fd_sc_mcu7t5v0__fillcap_4
XTAP_2375 vdd vss gf180mcu_fd_sc_mcu7t5v0__filltie
XTAP_1641 vdd vss gf180mcu_fd_sc_mcu7t5v0__filltie
XFILLER_226_1334 vdd vss gf180mcu_fd_sc_mcu7t5v0__fill_2
XFILLER_42_740 vdd vss gf180mcu_fd_sc_mcu7t5v0__fillcap_4
XTAP_2386 vdd vss gf180mcu_fd_sc_mcu7t5v0__filltie
XFILLER_144_1001 vdd vss gf180mcu_fd_sc_mcu7t5v0__fill_1
XFILLER_148_1170 vdd vss gf180mcu_fd_sc_mcu7t5v0__fill_1
XFILLER_187_712 vdd vss gf180mcu_fd_sc_mcu7t5v0__fillcap_4
XFILLER_57_1064 vdd vss gf180mcu_fd_sc_mcu7t5v0__fill_1
XTAP_1652 vdd vss gf180mcu_fd_sc_mcu7t5v0__filltie
XTAP_2397 vdd vss gf180mcu_fd_sc_mcu7t5v0__filltie
XFILLER_163_1635 vdd vss gf180mcu_fd_sc_mcu7t5v0__fillcap_64
XTAP_1663 vdd vss gf180mcu_fd_sc_mcu7t5v0__filltie
XFILLER_214_392 vdd vss gf180mcu_fd_sc_mcu7t5v0__fillcap_64
XTAP_1674 vdd vss gf180mcu_fd_sc_mcu7t5v0__filltie
XFILLER_159_425 vdd vss gf180mcu_fd_sc_mcu7t5v0__fill_1
XTAP_1685 vdd vss gf180mcu_fd_sc_mcu7t5v0__filltie
XFILLER_144_1034 vdd vss gf180mcu_fd_sc_mcu7t5v0__fillcap_32
XTAP_1696 vdd vss gf180mcu_fd_sc_mcu7t5v0__filltie
XFILLER_226_1389 vdd vss gf180mcu_fd_sc_mcu7t5v0__fill_2
XFILLER_41_283 vdd vss gf180mcu_fd_sc_mcu7t5v0__fill_1
XFILLER_187_778 vdd vss gf180mcu_fd_sc_mcu7t5v0__fill_2
XFILLER_30_957 vdd vss gf180mcu_fd_sc_mcu7t5v0__fill_1
XFILLER_35_1351 vdd vss gf180mcu_fd_sc_mcu7t5v0__fillcap_64
XFILLER_202_598 vdd vss gf180mcu_fd_sc_mcu7t5v0__fillcap_4
XFILLER_146_108 vdd vss gf180mcu_fd_sc_mcu7t5v0__fillcap_64
XFILLER_183_940 vdd vss gf180mcu_fd_sc_mcu7t5v0__fill_2