*SPEF "ieee 1481-1999"
*DESIGN "io_interface"
*DATE "11:11:11 Fri 11 11, 1111"
*VENDOR "OpenRCX"
*PROGRAM "Parallel Extraction"
*VERSION "1.0"
*DESIGN_FLOW "NAME_SCOPE LOCAL" "PIN_CAP NONE"
*DIVIDER /
*DELIMITER :
*BUS_DELIMITER []
*T_UNIT 1 NS
*C_UNIT 1 PF
*R_UNIT 1 OHM
*L_UNIT 1 HENRY

*NAME_MAP
*1 Serial_input
*2 net712
*3 analog_io[0]
*4 analog_io[10]
*5 analog_io[11]
*6 analog_io[12]
*7 analog_io[13]
*8 analog_io[14]
*9 analog_io[15]
*10 analog_io[16]
*11 analog_io[17]
*12 analog_io[18]
*13 analog_io[19]
*14 analog_io[1]
*15 analog_io[20]
*16 analog_io[21]
*17 analog_io[22]
*18 analog_io[23]
*19 analog_io[24]
*20 analog_io[25]
*21 analog_io[26]
*22 analog_io[27]
*23 analog_io[28]
*24 analog_io[2]
*25 analog_io[3]
*26 analog_io[4]
*27 analog_io[5]
*28 analog_io[6]
*29 analog_io[7]
*30 analog_io[8]
*31 analog_io[9]
*32 clk
*33 data_mem_addr[0]
*34 data_mem_addr[1]
*35 data_mem_addr[2]
*36 data_mem_addr[3]
*37 data_mem_addr[4]
*38 data_mem_addr[5]
*39 data_mem_addr[6]
*40 data_mem_addr[7]
*41 net713
*42 data_read_data[0]
*43 data_read_data[10]
*44 data_read_data[11]
*45 data_read_data[12]
*46 data_read_data[13]
*47 data_read_data[14]
*48 data_read_data[15]
*49 data_read_data[1]
*50 data_read_data[2]
*51 data_read_data[3]
*52 data_read_data[4]
*53 data_read_data[5]
*54 data_read_data[6]
*55 data_read_data[7]
*56 data_read_data[8]
*57 data_read_data[9]
*58 data_write_data[0]
*59 data_write_data[10]
*60 data_write_data[11]
*61 data_write_data[12]
*62 data_write_data[13]
*63 data_write_data[14]
*64 data_write_data[15]
*65 data_write_data[1]
*66 data_write_data[2]
*67 data_write_data[3]
*68 data_write_data[4]
*69 data_write_data[5]
*70 data_write_data[6]
*71 data_write_data[7]
*72 data_write_data[8]
*73 data_write_data[9]
*74 dataw_en
*75 dataw_en_8bit[0]
*76 dataw_en_8bit[1]
*77 dataw_en_8bit[2]
*78 dataw_en_8bit[3]
*79 dataw_en_8bit[4]
*80 dataw_en_8bit[5]
*81 dataw_en_8bit[6]
*82 dataw_en_8bit[7]
*83 hlt
*84 instr[0]
*85 instr[10]
*86 instr[11]
*87 instr[12]
*88 instr[13]
*89 instr[14]
*90 instr[15]
*91 instr[1]
*92 instr[2]
*93 instr[3]
*94 instr[4]
*95 instr[5]
*96 instr[6]
*97 instr[7]
*98 instr[8]
*99 instr[9]
*100 instr_mem_addr[0]
*101 instr_mem_addr[1]
*102 instr_mem_addr[2]
*103 instr_mem_addr[3]
*104 instr_mem_addr[4]
*105 instr_mem_addr[5]
*106 instr_mem_addr[6]
*107 instr_mem_addr[7]
*108 net714
*109 instr_write_data[0]
*110 instr_write_data[10]
*111 instr_write_data[11]
*112 instr_write_data[12]
*113 instr_write_data[13]
*114 instr_write_data[14]
*115 instr_write_data[15]
*116 instr_write_data[1]
*117 instr_write_data[2]
*118 instr_write_data[3]
*119 instr_write_data[4]
*120 instr_write_data[5]
*121 instr_write_data[6]
*122 instr_write_data[7]
*123 instr_write_data[8]
*124 instr_write_data[9]
*125 instrw_en
*126 instrw_en_8bit[0]
*127 instrw_en_8bit[1]
*128 instrw_en_8bit[2]
*129 instrw_en_8bit[3]
*130 instrw_en_8bit[4]
*131 instrw_en_8bit[5]
*132 instrw_en_8bit[6]
*133 instrw_en_8bit[7]
*134 io_in[0]
*135 io_in[10]
*136 io_in[11]
*137 io_in[12]
*138 io_in[13]
*139 io_in[14]
*140 io_in[15]
*141 io_in[16]
*142 io_in[17]
*143 io_in[18]
*144 io_in[19]
*145 io_in[1]
*146 io_in[20]
*147 io_in[21]
*148 io_in[22]
*149 io_in[23]
*150 io_in[24]
*151 io_in[25]
*152 io_in[26]
*153 io_in[27]
*154 io_in[28]
*155 io_in[29]
*156 io_in[2]
*157 io_in[30]
*158 io_in[31]
*159 io_in[32]
*160 io_in[33]
*161 io_in[34]
*162 io_in[35]
*163 io_in[36]
*164 io_in[37]
*165 io_in[3]
*166 io_in[4]
*167 io_in[5]
*168 io_in[6]
*169 io_in[7]
*170 io_in[8]
*171 io_in[9]
*172 net715
*173 net725
*174 net726
*175 net727
*176 net728
*177 net729
*178 net730
*179 net758
*180 net759
*181 net760
*182 net761
*183 net716
*184 net762
*185 net763
*186 net764
*187 net765
*188 net766
*189 net767
*190 net768
*191 net769
*192 net770
*193 net771
*194 net717
*195 net772
*196 net773
*197 net774
*198 net775
*199 net776
*200 net731
*201 net777
*202 net778
*203 net718
*204 net719
*205 net720
*206 net721
*207 net722
*208 net723
*209 net724
*210 io_out[0]
*211 io_out[10]
*212 io_out[11]
*213 io_out[12]
*214 io_out[13]
*215 io_out[14]
*216 io_out[15]
*217 net732
*218 net733
*219 net734
*220 net735
*221 io_out[1]
*222 net736
*223 net737
*224 net738
*225 net739
*226 net740
*227 net741
*228 net742
*229 net743
*230 net744
*231 net745
*232 io_out[2]
*233 net746
*234 net747
*235 net748
*236 net749
*237 net750
*238 io_out[35]
*239 net751
*240 net752
*241 io_out[3]
*242 io_out[4]
*243 io_out[5]
*244 io_out[6]
*245 io_out[7]
*246 io_out[8]
*247 io_out[9]
*248 net753
*249 net754
*250 net755
*251 la_data_in[0]
*252 la_data_in[100]
*253 la_data_in[101]
*254 la_data_in[102]
*255 la_data_in[103]
*256 la_data_in[104]
*257 la_data_in[105]
*258 la_data_in[106]
*259 la_data_in[107]
*260 la_data_in[108]
*261 la_data_in[109]
*262 la_data_in[10]
*263 la_data_in[110]
*264 la_data_in[111]
*265 la_data_in[112]
*266 la_data_in[113]
*267 la_data_in[114]
*268 la_data_in[115]
*269 la_data_in[116]
*270 la_data_in[117]
*271 la_data_in[118]
*272 la_data_in[119]
*273 la_data_in[11]
*274 la_data_in[120]
*275 la_data_in[121]
*276 la_data_in[122]
*277 la_data_in[123]
*278 la_data_in[124]
*279 la_data_in[125]
*280 la_data_in[126]
*281 la_data_in[127]
*282 la_data_in[12]
*283 la_data_in[13]
*284 la_data_in[14]
*285 la_data_in[15]
*286 la_data_in[16]
*287 la_data_in[17]
*288 la_data_in[18]
*289 la_data_in[19]
*290 la_data_in[1]
*291 la_data_in[20]
*292 la_data_in[21]
*293 la_data_in[22]
*294 la_data_in[23]
*295 la_data_in[24]
*296 la_data_in[25]
*297 la_data_in[26]
*298 la_data_in[27]
*299 la_data_in[28]
*300 la_data_in[29]
*301 la_data_in[2]
*302 la_data_in[30]
*303 la_data_in[31]
*304 la_data_in[32]
*305 la_data_in[33]
*306 la_data_in[34]
*307 la_data_in[35]
*308 la_data_in[36]
*309 la_data_in[37]
*310 la_data_in[38]
*311 la_data_in[39]
*312 la_data_in[3]
*313 la_data_in[40]
*314 la_data_in[41]
*315 la_data_in[42]
*316 la_data_in[43]
*317 la_data_in[44]
*318 la_data_in[45]
*319 la_data_in[46]
*320 la_data_in[47]
*321 la_data_in[48]
*322 la_data_in[49]
*323 la_data_in[4]
*324 la_data_in[50]
*325 la_data_in[51]
*326 la_data_in[52]
*327 la_data_in[53]
*328 la_data_in[54]
*329 la_data_in[55]
*330 la_data_in[56]
*331 la_data_in[57]
*332 la_data_in[58]
*333 la_data_in[59]
*334 la_data_in[5]
*335 la_data_in[60]
*336 la_data_in[61]
*337 la_data_in[62]
*338 la_data_in[63]
*339 la_data_in[64]
*340 la_data_in[65]
*341 la_data_in[66]
*342 la_data_in[67]
*343 la_data_in[68]
*344 la_data_in[69]
*345 la_data_in[6]
*346 la_data_in[70]
*347 la_data_in[71]
*348 la_data_in[72]
*349 la_data_in[73]
*350 la_data_in[74]
*351 la_data_in[75]
*352 la_data_in[76]
*353 la_data_in[77]
*354 la_data_in[78]
*355 la_data_in[79]
*356 la_data_in[7]
*357 la_data_in[80]
*358 la_data_in[81]
*359 la_data_in[82]
*360 la_data_in[83]
*361 la_data_in[84]
*362 la_data_in[85]
*363 la_data_in[86]
*364 la_data_in[87]
*365 la_data_in[88]
*366 la_data_in[89]
*367 la_data_in[8]
*368 la_data_in[90]
*369 la_data_in[91]
*370 la_data_in[92]
*371 la_data_in[93]
*372 la_data_in[94]
*373 la_data_in[95]
*374 la_data_in[96]
*375 la_data_in[97]
*376 la_data_in[98]
*377 la_data_in[99]
*378 la_data_in[9]
*379 net756
*380 la_data_out[100]
*381 la_data_out[101]
*382 la_data_out[102]
*383 la_data_out[103]
*384 la_data_out[104]
*385 la_data_out[105]
*386 la_data_out[106]
*387 la_data_out[107]
*388 la_data_out[108]
*389 la_data_out[109]
*390 la_data_out[10]
*391 la_data_out[110]
*392 la_data_out[111]
*393 la_data_out[112]
*394 la_data_out[113]
*395 la_data_out[114]
*396 la_data_out[115]
*397 la_data_out[116]
*398 la_data_out[117]
*399 la_data_out[118]
*400 la_data_out[119]
*401 la_data_out[11]
*402 la_data_out[120]
*403 la_data_out[121]
*404 la_data_out[122]
*405 la_data_out[123]
*406 la_data_out[124]
*407 la_data_out[125]
*408 la_data_out[126]
*409 la_data_out[127]
*410 la_data_out[12]
*411 la_data_out[13]
*412 la_data_out[14]
*413 la_data_out[15]
*414 la_data_out[16]
*415 la_data_out[17]
*416 la_data_out[18]
*417 la_data_out[19]
*418 net757
*419 la_data_out[20]
*420 la_data_out[21]
*421 la_data_out[22]
*422 la_data_out[23]
*423 la_data_out[24]
*424 la_data_out[25]
*425 la_data_out[26]
*426 la_data_out[27]
*427 la_data_out[28]
*428 la_data_out[29]
*429 la_data_out[2]
*430 la_data_out[30]
*431 la_data_out[31]
*432 la_data_out[32]
*433 la_data_out[33]
*434 la_data_out[34]
*435 la_data_out[35]
*436 la_data_out[36]
*437 la_data_out[37]
*438 la_data_out[38]
*439 la_data_out[39]
*440 la_data_out[3]
*441 la_data_out[40]
*442 la_data_out[41]
*443 la_data_out[42]
*444 la_data_out[43]
*445 la_data_out[44]
*446 la_data_out[45]
*447 la_data_out[46]
*448 la_data_out[47]
*449 la_data_out[48]
*450 la_data_out[49]
*451 la_data_out[4]
*452 la_data_out[50]
*453 la_data_out[51]
*454 la_data_out[52]
*455 la_data_out[53]
*456 la_data_out[54]
*457 la_data_out[55]
*458 la_data_out[56]
*459 la_data_out[57]
*460 la_data_out[58]
*461 la_data_out[59]
*462 la_data_out[5]
*463 la_data_out[60]
*464 la_data_out[61]
*465 la_data_out[62]
*466 la_data_out[63]
*467 la_data_out[64]
*468 la_data_out[65]
*469 la_data_out[66]
*470 la_data_out[67]
*471 la_data_out[68]
*472 la_data_out[69]
*473 la_data_out[6]
*474 la_data_out[70]
*475 la_data_out[71]
*476 la_data_out[72]
*477 la_data_out[73]
*478 la_data_out[74]
*479 la_data_out[75]
*480 la_data_out[76]
*481 la_data_out[77]
*482 la_data_out[78]
*483 la_data_out[79]
*484 la_data_out[7]
*485 la_data_out[80]
*486 la_data_out[81]
*487 la_data_out[82]
*488 la_data_out[83]
*489 la_data_out[84]
*490 la_data_out[85]
*491 la_data_out[86]
*492 la_data_out[87]
*493 la_data_out[88]
*494 la_data_out[89]
*495 la_data_out[8]
*496 la_data_out[90]
*497 la_data_out[91]
*498 la_data_out[92]
*499 la_data_out[93]
*500 la_data_out[94]
*501 la_data_out[95]
*502 la_data_out[96]
*503 la_data_out[97]
*504 la_data_out[98]
*505 la_data_out[99]
*506 la_data_out[9]
*507 la_oenb[0]
*508 la_oenb[100]
*509 la_oenb[101]
*510 la_oenb[102]
*511 la_oenb[103]
*512 la_oenb[104]
*513 la_oenb[105]
*514 la_oenb[106]
*515 la_oenb[107]
*516 la_oenb[108]
*517 la_oenb[109]
*518 la_oenb[10]
*519 la_oenb[110]
*520 la_oenb[111]
*521 la_oenb[112]
*522 la_oenb[113]
*523 la_oenb[114]
*524 la_oenb[115]
*525 la_oenb[116]
*526 la_oenb[117]
*527 la_oenb[118]
*528 la_oenb[119]
*529 la_oenb[11]
*530 la_oenb[120]
*531 la_oenb[121]
*532 la_oenb[122]
*533 la_oenb[123]
*534 la_oenb[124]
*535 la_oenb[125]
*536 la_oenb[126]
*537 la_oenb[127]
*538 la_oenb[12]
*539 la_oenb[13]
*540 la_oenb[14]
*541 la_oenb[15]
*542 la_oenb[16]
*543 la_oenb[17]
*544 la_oenb[18]
*545 la_oenb[19]
*546 la_oenb[1]
*547 la_oenb[20]
*548 la_oenb[21]
*549 la_oenb[22]
*550 la_oenb[23]
*551 la_oenb[24]
*552 la_oenb[25]
*553 la_oenb[26]
*554 la_oenb[27]
*555 la_oenb[28]
*556 la_oenb[29]
*557 la_oenb[2]
*558 la_oenb[30]
*559 la_oenb[31]
*560 la_oenb[32]
*561 la_oenb[33]
*562 la_oenb[34]
*563 la_oenb[35]
*564 la_oenb[36]
*565 la_oenb[37]
*566 la_oenb[38]
*567 la_oenb[39]
*568 la_oenb[3]
*569 la_oenb[40]
*570 la_oenb[41]
*571 la_oenb[42]
*572 la_oenb[43]
*573 la_oenb[44]
*574 la_oenb[45]
*575 la_oenb[46]
*576 la_oenb[47]
*577 la_oenb[48]
*578 la_oenb[49]
*579 la_oenb[4]
*580 la_oenb[50]
*581 la_oenb[51]
*582 la_oenb[52]
*583 la_oenb[53]
*584 la_oenb[54]
*585 la_oenb[55]
*586 la_oenb[56]
*587 la_oenb[57]
*588 la_oenb[58]
*589 la_oenb[59]
*590 la_oenb[5]
*591 la_oenb[60]
*592 la_oenb[61]
*593 la_oenb[62]
*594 la_oenb[63]
*595 la_oenb[64]
*596 la_oenb[65]
*597 la_oenb[66]
*598 la_oenb[67]
*599 la_oenb[68]
*600 la_oenb[69]
*601 la_oenb[6]
*602 la_oenb[70]
*603 la_oenb[71]
*604 la_oenb[72]
*605 la_oenb[73]
*606 la_oenb[74]
*607 la_oenb[75]
*608 la_oenb[76]
*609 la_oenb[77]
*610 la_oenb[78]
*611 la_oenb[79]
*612 la_oenb[7]
*613 la_oenb[80]
*614 la_oenb[81]
*615 la_oenb[82]
*616 la_oenb[83]
*617 la_oenb[84]
*618 la_oenb[85]
*619 la_oenb[86]
*620 la_oenb[87]
*621 la_oenb[88]
*622 la_oenb[89]
*623 la_oenb[8]
*624 la_oenb[90]
*625 la_oenb[91]
*626 la_oenb[92]
*627 la_oenb[93]
*628 la_oenb[94]
*629 la_oenb[95]
*630 la_oenb[96]
*631 la_oenb[97]
*632 la_oenb[98]
*633 la_oenb[99]
*634 la_oenb[9]
*635 reset
*636 start
*637 uP_data_mem_addr[0]
*638 uP_data_mem_addr[1]
*639 uP_data_mem_addr[2]
*640 uP_data_mem_addr[3]
*641 uP_data_mem_addr[4]
*642 uP_data_mem_addr[5]
*643 uP_data_mem_addr[6]
*644 uP_data_mem_addr[7]
*645 uP_dataw_en
*646 uP_instr[0]
*647 uP_instr[10]
*648 uP_instr[11]
*649 uP_instr[12]
*650 uP_instr[13]
*651 uP_instr[14]
*652 uP_instr[15]
*653 uP_instr[1]
*654 uP_instr[2]
*655 uP_instr[3]
*656 uP_instr[4]
*657 uP_instr[5]
*658 uP_instr[6]
*659 uP_instr[7]
*660 uP_instr[8]
*661 uP_instr[9]
*662 uP_instr_mem_addr[0]
*663 uP_instr_mem_addr[10]
*664 uP_instr_mem_addr[11]
*665 uP_instr_mem_addr[12]
*666 uP_instr_mem_addr[1]
*667 uP_instr_mem_addr[2]
*668 uP_instr_mem_addr[3]
*669 uP_instr_mem_addr[4]
*670 uP_instr_mem_addr[5]
*671 uP_instr_mem_addr[6]
*672 uP_instr_mem_addr[7]
*673 uP_instr_mem_addr[8]
*674 uP_instr_mem_addr[9]
*675 uP_write_data[0]
*676 uP_write_data[10]
*677 uP_write_data[11]
*678 uP_write_data[12]
*679 uP_write_data[13]
*680 uP_write_data[14]
*681 uP_write_data[15]
*682 uP_write_data[1]
*683 uP_write_data[2]
*684 uP_write_data[3]
*685 uP_write_data[4]
*686 uP_write_data[5]
*687 uP_write_data[6]
*688 uP_write_data[7]
*689 uP_write_data[8]
*690 uP_write_data[9]
*693 wb_clk_i
*694 wb_rst_i
*695 wbs_ack_o
*696 wbs_adr_i[0]
*697 wbs_adr_i[10]
*698 wbs_adr_i[11]
*699 wbs_adr_i[12]
*700 wbs_adr_i[13]
*701 wbs_adr_i[14]
*702 wbs_adr_i[15]
*703 wbs_adr_i[16]
*704 wbs_adr_i[17]
*705 wbs_adr_i[18]
*706 wbs_adr_i[19]
*707 wbs_adr_i[1]
*708 wbs_adr_i[20]
*709 wbs_adr_i[21]
*710 wbs_adr_i[22]
*711 wbs_adr_i[23]
*712 wbs_adr_i[24]
*713 wbs_adr_i[25]
*714 wbs_adr_i[26]
*715 wbs_adr_i[27]
*716 wbs_adr_i[28]
*717 wbs_adr_i[29]
*718 wbs_adr_i[2]
*719 wbs_adr_i[30]
*720 wbs_adr_i[31]
*721 wbs_adr_i[3]
*722 wbs_adr_i[4]
*723 wbs_adr_i[5]
*724 wbs_adr_i[6]
*725 wbs_adr_i[7]
*726 wbs_adr_i[8]
*727 wbs_adr_i[9]
*728 wbs_cyc_i
*729 wbs_dat_i[0]
*730 wbs_dat_i[10]
*731 wbs_dat_i[11]
*732 wbs_dat_i[12]
*733 wbs_dat_i[13]
*734 wbs_dat_i[14]
*735 wbs_dat_i[15]
*736 wbs_dat_i[16]
*737 wbs_dat_i[17]
*738 wbs_dat_i[18]
*739 wbs_dat_i[19]
*740 wbs_dat_i[1]
*741 wbs_dat_i[20]
*742 wbs_dat_i[21]
*743 wbs_dat_i[22]
*744 wbs_dat_i[23]
*745 wbs_dat_i[24]
*746 wbs_dat_i[25]
*747 wbs_dat_i[26]
*748 wbs_dat_i[27]
*749 wbs_dat_i[28]
*750 wbs_dat_i[29]
*751 wbs_dat_i[2]
*752 wbs_dat_i[30]
*753 wbs_dat_i[31]
*754 wbs_dat_i[3]
*755 wbs_dat_i[4]
*756 wbs_dat_i[5]
*757 wbs_dat_i[6]
*758 wbs_dat_i[7]
*759 wbs_dat_i[8]
*760 wbs_dat_i[9]
*761 wbs_dat_o[0]
*762 wbs_dat_o[10]
*763 wbs_dat_o[11]
*764 wbs_dat_o[12]
*765 wbs_dat_o[13]
*766 wbs_dat_o[14]
*767 wbs_dat_o[15]
*768 wbs_dat_o[16]
*769 wbs_dat_o[17]
*770 wbs_dat_o[18]
*771 wbs_dat_o[19]
*772 wbs_dat_o[1]
*773 wbs_dat_o[20]
*774 wbs_dat_o[21]
*775 wbs_dat_o[22]
*776 wbs_dat_o[23]
*777 wbs_dat_o[24]
*778 wbs_dat_o[25]
*779 wbs_dat_o[26]
*780 wbs_dat_o[27]
*781 wbs_dat_o[28]
*782 wbs_dat_o[29]
*783 wbs_dat_o[2]
*784 wbs_dat_o[30]
*785 wbs_dat_o[31]
*786 wbs_dat_o[3]
*787 wbs_dat_o[4]
*788 wbs_dat_o[5]
*789 wbs_dat_o[6]
*790 wbs_dat_o[7]
*791 wbs_dat_o[8]
*792 wbs_dat_o[9]
*793 wbs_sel_i[0]
*794 wbs_sel_i[1]
*795 wbs_sel_i[2]
*796 wbs_sel_i[3]
*797 wbs_stb_i
*798 wbs_we_i
*799 _0000_
*800 _0001_
*801 _0002_
*802 _0003_
*803 _0004_
*804 _0005_
*805 _0006_
*806 _0007_
*807 _0008_
*808 _0009_
*809 _0010_
*810 _0011_
*811 _0012_
*812 _0013_
*813 _0014_
*814 _0015_
*815 _0016_
*816 _0017_
*817 _0018_
*818 _0019_
*819 _0020_
*820 _0021_
*821 _0022_
*822 _0023_
*823 _0024_
*824 _0025_
*825 _0026_
*826 _0027_
*827 _0028_
*828 _0029_
*829 _0030_
*830 _0031_
*831 _0032_
*832 _0033_
*833 _0034_
*834 _0035_
*835 _0036_
*836 _0037_
*837 _0038_
*838 _0039_
*839 _0040_
*840 _0041_
*841 _0042_
*842 _0043_
*843 _0044_
*844 _0045_
*845 _0046_
*846 _0047_
*847 _0048_
*848 _0049_
*849 _0050_
*850 _0051_
*851 _0052_
*852 _0053_
*853 _0054_
*854 _0055_
*855 _0056_
*856 _0057_
*857 _0058_
*858 _0059_
*859 _0060_
*860 _0061_
*861 _0062_
*862 _0063_
*863 _0064_
*864 _0065_
*865 _0066_
*866 _0067_
*867 _0068_
*868 _0069_
*869 _0070_
*870 _0071_
*871 _0072_
*872 _0073_
*873 _0074_
*874 _0075_
*875 _0076_
*876 _0077_
*877 _0078_
*878 _0079_
*879 _0080_
*880 _0081_
*881 _0082_
*882 _0083_
*883 _0084_
*884 _0085_
*885 _0086_
*886 _0087_
*887 _0088_
*888 _0089_
*889 _0090_
*890 _0091_
*891 _0092_
*892 _0093_
*893 _0094_
*894 _0095_
*895 _0096_
*896 _0097_
*897 _0098_
*898 _0099_
*899 _0100_
*900 _0101_
*901 _0102_
*902 _0103_
*903 _0104_
*904 _0105_
*905 _0106_
*906 _0107_
*907 _0108_
*908 _0109_
*909 _0110_
*910 _0111_
*911 _0112_
*912 _0113_
*913 _0114_
*914 _0115_
*915 _0116_
*916 _0117_
*917 _0118_
*918 _0119_
*919 _0120_
*920 _0121_
*921 _0122_
*922 _0123_
*923 _0124_
*924 _0125_
*925 _0126_
*926 _0127_
*927 _0128_
*928 _0129_
*929 _0130_
*930 _0131_
*931 _0132_
*932 _0133_
*933 _0134_
*934 _0135_
*935 _0136_
*936 _0137_
*937 _0138_
*938 _0139_
*939 _0140_
*940 _0141_
*941 _0142_
*942 _0143_
*943 _0144_
*944 _0145_
*945 _0146_
*946 _0147_
*947 _0148_
*948 _0149_
*949 _0150_
*950 _0151_
*951 _0152_
*952 _0153_
*953 _0154_
*954 _0155_
*955 _0156_
*956 _0157_
*957 _0158_
*958 _0159_
*959 _0160_
*960 _0161_
*961 _0162_
*962 _0163_
*963 _0164_
*964 _0165_
*965 _0166_
*966 _0167_
*967 _0168_
*968 _0169_
*969 _0170_
*970 _0171_
*971 _0172_
*972 _0173_
*973 _0174_
*974 _0175_
*975 _0176_
*976 _0177_
*977 _0178_
*978 _0179_
*979 _0180_
*980 _0181_
*981 _0182_
*982 _0183_
*983 _0184_
*984 _0185_
*985 _0186_
*986 _0187_
*987 _0188_
*988 _0189_
*989 _0190_
*990 _0191_
*991 _0192_
*992 _0193_
*993 _0194_
*994 _0195_
*995 _0196_
*996 _0197_
*997 _0198_
*998 _0199_
*999 _0200_
*1000 _0201_
*1001 _0202_
*1002 _0203_
*1003 _0204_
*1004 _0205_
*1005 _0206_
*1006 _0207_
*1007 _0208_
*1008 _0209_
*1009 _0210_
*1010 _0211_
*1011 _0212_
*1012 _0213_
*1013 _0214_
*1014 _0215_
*1015 _0216_
*1016 _0217_
*1017 _0218_
*1018 _0219_
*1019 _0220_
*1020 _0221_
*1021 _0222_
*1022 _0223_
*1023 _0224_
*1024 _0225_
*1025 _0226_
*1026 _0227_
*1027 _0228_
*1028 _0229_
*1029 _0230_
*1030 _0231_
*1031 _0232_
*1032 _0233_
*1033 _0234_
*1034 _0235_
*1035 _0236_
*1036 _0237_
*1037 _0238_
*1038 _0239_
*1039 _0240_
*1040 _0241_
*1041 _0242_
*1042 _0243_
*1043 _0244_
*1044 _0245_
*1045 _0246_
*1046 _0247_
*1047 _0248_
*1048 _0249_
*1049 _0250_
*1050 _0251_
*1051 _0252_
*1052 _0253_
*1053 _0254_
*1054 _0255_
*1055 _0256_
*1056 _0257_
*1057 _0258_
*1058 _0259_
*1059 _0260_
*1060 _0261_
*1061 _0262_
*1062 _0263_
*1063 _0264_
*1064 _0265_
*1065 _0266_
*1066 _0267_
*1067 _0268_
*1068 _0269_
*1069 _0270_
*1070 _0271_
*1071 _0272_
*1072 _0273_
*1073 _0274_
*1074 _0275_
*1075 _0276_
*1076 _0277_
*1077 _0278_
*1078 _0279_
*1079 _0280_
*1080 _0281_
*1081 _0282_
*1082 _0283_
*1083 _0284_
*1084 _0285_
*1085 _0286_
*1086 _0287_
*1087 _0288_
*1088 _0289_
*1089 _0290_
*1090 _0291_
*1091 _0292_
*1092 _0293_
*1093 _0294_
*1094 _0295_
*1095 _0296_
*1096 _0297_
*1097 _0298_
*1098 _0299_
*1099 _0300_
*1100 _0301_
*1101 _0302_
*1102 _0303_
*1103 _0304_
*1104 _0305_
*1105 _0306_
*1106 _0307_
*1107 _0308_
*1108 _0309_
*1109 _0310_
*1110 _0311_
*1111 _0312_
*1112 _0313_
*1113 _0314_
*1114 _0315_
*1115 _0316_
*1116 _0317_
*1117 _0318_
*1118 _0319_
*1119 _0320_
*1120 _0321_
*1121 _0322_
*1122 _0323_
*1123 _0324_
*1124 _0325_
*1125 _0326_
*1126 _0327_
*1127 _0328_
*1128 _0329_
*1129 _0330_
*1130 _0331_
*1131 _0332_
*1132 _0333_
*1133 _0334_
*1134 _0335_
*1135 _0336_
*1136 _0337_
*1137 _0338_
*1138 _0339_
*1139 _0340_
*1140 _0341_
*1141 _0342_
*1142 _0343_
*1143 _0344_
*1144 _0345_
*1145 _0346_
*1146 _0347_
*1147 _0348_
*1148 _0349_
*1149 _0350_
*1150 _0351_
*1151 _0352_
*1152 _0353_
*1153 _0354_
*1154 _0355_
*1155 _0356_
*1156 _0357_
*1157 _0358_
*1158 _0359_
*1159 _0360_
*1160 _0361_
*1161 _0362_
*1162 _0363_
*1163 _0364_
*1164 _0365_
*1165 _0366_
*1166 _0367_
*1167 _0368_
*1168 _0369_
*1169 _0370_
*1170 _0371_
*1171 _0372_
*1172 _0373_
*1173 _0374_
*1174 _0375_
*1175 _0376_
*1176 _0377_
*1177 _0378_
*1178 _0379_
*1179 _0380_
*1180 _0381_
*1181 _0382_
*1182 _0383_
*1183 _0384_
*1184 _0385_
*1185 _0386_
*1186 _0387_
*1187 _0388_
*1188 _0389_
*1189 _0390_
*1190 _0391_
*1191 _0392_
*1192 _0393_
*1193 _0394_
*1194 _0395_
*1195 _0396_
*1196 _0397_
*1197 _0398_
*1198 _0399_
*1199 _0400_
*1200 _0401_
*1201 _0402_
*1202 _0403_
*1203 _0404_
*1204 _0405_
*1205 _0406_
*1206 _0407_
*1207 _0408_
*1208 _0409_
*1209 _0410_
*1210 _0411_
*1211 _0412_
*1212 _0413_
*1213 _0414_
*1214 _0415_
*1215 _0416_
*1216 _0417_
*1217 _0418_
*1218 _0419_
*1219 _0420_
*1220 _0421_
*1221 _0422_
*1222 _0423_
*1223 _0424_
*1224 _0425_
*1225 _0426_
*1226 _0427_
*1227 _0428_
*1228 _0429_
*1229 _0430_
*1230 _0431_
*1231 _0432_
*1232 _0433_
*1233 _0434_
*1234 _0435_
*1235 _0436_
*1236 _0437_
*1237 _0438_
*1238 _0439_
*1239 data_load_addr\[0\]
*1240 data_load_addr\[1\]
*1241 data_load_addr\[2\]
*1242 data_load_addr\[3\]
*1243 data_load_addr\[4\]
*1244 data_load_addr\[5\]
*1245 data_load_addr\[6\]
*1246 data_load_addr\[7\]
*1247 instr_load_addr\[0\]
*1248 instr_load_addr\[10\]
*1249 instr_load_addr\[11\]
*1250 instr_load_addr\[12\]
*1251 instr_load_addr\[1\]
*1252 instr_load_addr\[2\]
*1253 instr_load_addr\[3\]
*1254 instr_load_addr\[4\]
*1255 instr_load_addr\[5\]
*1256 instr_load_addr\[6\]
*1257 instr_load_addr\[7\]
*1258 instr_load_addr\[8\]
*1259 instr_load_addr\[9\]
*1260 net1
*1261 net10
*1262 net100
*1263 net101
*1264 net102
*1265 net103
*1266 net104
*1267 net105
*1268 net106
*1269 net107
*1270 net108
*1271 net109
*1272 net11
*1273 net110
*1274 net111
*1275 net112
*1276 net113
*1277 net114
*1278 net115
*1279 net116
*1280 net117
*1281 net118
*1282 net119
*1283 net12
*1284 net120
*1285 net121
*1286 net122
*1287 net123
*1288 net124
*1289 net125
*1290 net126
*1291 net127
*1292 net128
*1293 net129
*1294 net13
*1295 net130
*1296 net131
*1297 net132
*1298 net133
*1299 net134
*1300 net135
*1301 net136
*1302 net137
*1303 net138
*1304 net139
*1305 net14
*1306 net140
*1307 net141
*1308 net142
*1309 net143
*1310 net144
*1311 net145
*1312 net146
*1313 net147
*1314 net148
*1315 net149
*1316 net15
*1317 net150
*1318 net151
*1319 net152
*1320 net153
*1321 net154
*1322 net155
*1323 net156
*1324 net157
*1325 net158
*1326 net159
*1327 net16
*1328 net160
*1329 net161
*1330 net162
*1331 net163
*1332 net164
*1333 net165
*1334 net166
*1335 net167
*1336 net168
*1337 net169
*1338 net17
*1339 net170
*1340 net171
*1341 net172
*1342 net173
*1343 net174
*1344 net175
*1345 net176
*1346 net177
*1347 net178
*1348 net179
*1349 net18
*1350 net180
*1351 net181
*1352 net182
*1353 net183
*1354 net184
*1355 net185
*1356 net186
*1357 net187
*1358 net188
*1359 net189
*1360 net19
*1361 net190
*1362 net191
*1363 net192
*1364 net193
*1365 net194
*1366 net195
*1367 net196
*1368 net197
*1369 net198
*1370 net199
*1371 net2
*1372 net20
*1373 net200
*1374 net201
*1375 net202
*1376 net203
*1377 net204
*1378 net205
*1379 net206
*1380 net207
*1381 net208
*1382 net209
*1383 net21
*1384 net210
*1385 net211
*1386 net212
*1387 net213
*1388 net214
*1389 net215
*1390 net216
*1391 net217
*1392 net218
*1393 net219
*1394 net22
*1395 net220
*1396 net221
*1397 net222
*1398 net223
*1399 net224
*1400 net225
*1401 net226
*1402 net227
*1403 net228
*1404 net229
*1405 net23
*1406 net230
*1407 net231
*1408 net232
*1409 net233
*1410 net234
*1411 net235
*1412 net236
*1413 net237
*1414 net238
*1415 net239
*1416 net24
*1417 net240
*1418 net241
*1419 net242
*1420 net243
*1421 net244
*1422 net245
*1423 net246
*1424 net247
*1425 net248
*1426 net249
*1427 net25
*1428 net250
*1429 net251
*1430 net252
*1431 net253
*1432 net254
*1433 net255
*1434 net256
*1435 net257
*1436 net258
*1437 net259
*1438 net26
*1439 net260
*1440 net261
*1441 net262
*1442 net263
*1443 net264
*1444 net265
*1445 net266
*1446 net267
*1447 net268
*1448 net269
*1449 net27
*1450 net270
*1451 net271
*1452 net272
*1453 net273
*1454 net274
*1455 net275
*1456 net276
*1457 net277
*1458 net278
*1459 net279
*1460 net28
*1461 net280
*1462 net281
*1463 net282
*1464 net283
*1465 net284
*1466 net285
*1467 net286
*1468 net287
*1469 net288
*1470 net289
*1471 net29
*1472 net290
*1473 net291
*1474 net292
*1475 net293
*1476 net294
*1477 net295
*1478 net296
*1479 net297
*1480 net298
*1481 net299
*1482 net3
*1483 net30
*1484 net300
*1485 net301
*1486 net302
*1487 net303
*1488 net304
*1489 net305
*1490 net306
*1491 net307
*1492 net308
*1493 net309
*1494 net31
*1495 net310
*1496 net311
*1497 net312
*1498 net313
*1499 net314
*1500 net315
*1501 net316
*1502 net317
*1503 net318
*1504 net319
*1505 net32
*1506 net320
*1507 net321
*1508 net322
*1509 net323
*1510 net324
*1511 net325
*1512 net326
*1513 net327
*1514 net328
*1515 net329
*1516 net33
*1517 net330
*1518 net331
*1519 net332
*1520 net333
*1521 net334
*1522 net335
*1523 net336
*1524 net337
*1525 net338
*1526 net339
*1527 net34
*1528 net340
*1529 net341
*1530 net342
*1531 net343
*1532 net344
*1533 net345
*1534 net346
*1535 net347
*1536 net348
*1537 net349
*1538 net35
*1539 net350
*1540 net351
*1541 net352
*1542 net353
*1543 net354
*1544 net355
*1545 net356
*1546 net357
*1547 net358
*1548 net359
*1549 net36
*1550 net360
*1551 net361
*1552 net362
*1553 net363
*1554 net364
*1555 net365
*1556 net366
*1557 net367
*1558 net368
*1559 net369
*1560 net37
*1561 net370
*1562 net371
*1563 net372
*1564 net373
*1565 net374
*1566 net375
*1567 net376
*1568 net377
*1569 net378
*1570 net379
*1571 net38
*1572 net380
*1573 net381
*1574 net382
*1575 net383
*1576 net384
*1577 net385
*1578 net386
*1579 net387
*1580 net388
*1581 net389
*1582 net39
*1583 net390
*1584 net391
*1585 net392
*1586 net393
*1587 net394
*1588 net395
*1589 net396
*1590 net397
*1591 net398
*1592 net399
*1593 net4
*1594 net40
*1595 net400
*1596 net401
*1597 net402
*1598 net403
*1599 net404
*1600 net405
*1601 net406
*1602 net407
*1603 net408
*1604 net409
*1605 net41
*1606 net410
*1607 net411
*1608 net412
*1609 net413
*1610 net414
*1611 net415
*1612 net416
*1613 net417
*1614 net418
*1615 net419
*1616 net42
*1617 net420
*1618 net421
*1619 net422
*1620 net423
*1621 net424
*1622 net425
*1623 net426
*1624 net427
*1625 net428
*1626 net429
*1627 net43
*1628 net430
*1629 net431
*1630 net432
*1631 net433
*1632 net434
*1633 net435
*1634 net436
*1635 net437
*1636 net438
*1637 net439
*1638 net44
*1639 net440
*1640 net441
*1641 net442
*1642 net443
*1643 net444
*1644 net445
*1645 net446
*1646 net447
*1647 net448
*1648 net449
*1649 net45
*1650 net450
*1651 net451
*1652 net452
*1653 net453
*1654 net454
*1655 net455
*1656 net456
*1657 net457
*1658 net458
*1659 net459
*1660 net46
*1661 net460
*1662 net461
*1663 net462
*1664 net463
*1665 net464
*1666 net465
*1667 net466
*1668 net467
*1669 net468
*1670 net469
*1671 net47
*1672 net470
*1673 net471
*1674 net472
*1675 net473
*1676 net474
*1677 net475
*1678 net476
*1679 net477
*1680 net478
*1681 net479
*1682 net48
*1683 net480
*1684 net481
*1685 net482
*1686 net483
*1687 net484
*1688 net485
*1689 net486
*1690 net487
*1691 net488
*1692 net489
*1693 net49
*1694 net490
*1695 net491
*1696 net492
*1697 net493
*1698 net494
*1699 net495
*1700 net496
*1701 net497
*1702 net498
*1703 net499
*1704 net5
*1705 net50
*1706 net500
*1707 net501
*1708 net502
*1709 net503
*1710 net504
*1711 net505
*1712 net506
*1713 net507
*1714 net508
*1715 net509
*1716 net51
*1717 net510
*1718 net511
*1719 net512
*1720 net513
*1721 net514
*1722 net515
*1723 net516
*1724 net517
*1725 net518
*1726 net519
*1727 net52
*1728 net520
*1729 net521
*1730 net522
*1731 net523
*1732 net524
*1733 net525
*1734 net526
*1735 net527
*1736 net528
*1737 net529
*1738 net53
*1739 net530
*1740 net531
*1741 net532
*1742 net533
*1743 net534
*1744 net535
*1745 net536
*1746 net537
*1747 net538
*1748 net539
*1749 net54
*1750 net540
*1751 net541
*1752 net542
*1753 net543
*1754 net544
*1755 net545
*1756 net546
*1757 net547
*1758 net548
*1759 net549
*1760 net55
*1761 net550
*1762 net551
*1763 net552
*1764 net553
*1765 net554
*1766 net555
*1767 net556
*1768 net557
*1769 net558
*1770 net559
*1771 net56
*1772 net560
*1773 net561
*1774 net562
*1775 net563
*1776 net564
*1777 net565
*1778 net566
*1779 net567
*1780 net568
*1781 net569
*1782 net57
*1783 net570
*1784 net571
*1785 net572
*1786 net573
*1787 net574
*1788 net575
*1789 net576
*1790 net577
*1791 net578
*1792 net579
*1793 net58
*1794 net580
*1795 net581
*1796 net582
*1797 net583
*1798 net584
*1799 net585
*1800 net586
*1801 net587
*1802 net588
*1803 net589
*1804 net59
*1805 net590
*1806 net591
*1807 net592
*1808 net593
*1809 net594
*1810 net595
*1811 net596
*1812 net597
*1813 net598
*1814 net599
*1815 net6
*1816 net60
*1817 net600
*1818 net601
*1819 net602
*1820 net603
*1821 net604
*1822 net605
*1823 net606
*1824 net607
*1825 net608
*1826 net609
*1827 net61
*1828 net610
*1829 net611
*1830 net612
*1831 net613
*1832 net614
*1833 net615
*1834 net616
*1835 net617
*1836 net618
*1837 net619
*1838 net62
*1839 net620
*1840 net621
*1841 net622
*1842 net623
*1843 net624
*1844 net625
*1845 net626
*1846 net627
*1847 net628
*1848 net629
*1849 net63
*1850 net630
*1851 net631
*1852 net632
*1853 net633
*1854 net634
*1855 net635
*1856 net636
*1857 net637
*1858 net638
*1859 net639
*1860 net64
*1861 net640
*1862 net641
*1863 net642
*1864 net643
*1865 net644
*1866 net645
*1867 net646
*1868 net647
*1869 net648
*1870 net649
*1871 net65
*1872 net650
*1873 net651
*1874 net652
*1875 net653
*1876 net654
*1877 net655
*1878 net656
*1879 net657
*1880 net658
*1881 net659
*1882 net66
*1883 net660
*1884 net661
*1885 net662
*1886 net663
*1887 net664
*1888 net665
*1889 net666
*1890 net667
*1891 net668
*1892 net669
*1893 net67
*1894 net670
*1895 net671
*1896 net672
*1897 net673
*1898 net674
*1899 net675
*1900 net676
*1901 net677
*1902 net678
*1903 net679
*1904 net68
*1905 net680
*1906 net681
*1907 net682
*1908 net683
*1909 net684
*1910 net685
*1911 net686
*1912 net687
*1913 net688
*1914 net689
*1915 net69
*1916 net690
*1917 net691
*1918 net692
*1919 net693
*1920 net694
*1921 net695
*1922 net696
*1923 net697
*1924 net698
*1925 net699
*1926 net7
*1927 net70
*1928 net700
*1929 net701
*1930 net702
*1931 net703
*1932 net704
*1933 net705
*1934 net706
*1935 net707
*1936 net708
*1937 net709
*1938 net71
*1939 net710